18

C -0.737652 2.109039 0.213293
O -1.546164 2.280756 -0.706867
N -0.263628 0.874849 0.544488
H 0.308248 0.793370 1.380963
C -0.548079 -0.334715 -0.248156
H -0.659563 -0.015946 -1.294865
C -1.874147 -0.971258 0.215925
O -1.852706 -2.034590 0.838907
H 0.716275 -1.664512 0.896114
H 0.305414 -2.250173 -0.732356
C 0.598283 -1.373487 -0.149751
S 2.180076 -0.774657 -0.887722
C 2.650918 0.385489 0.268342
N 2.964669 1.157953 1.113259
N -3.003349 -0.293244 -0.119854
H -0.363789 2.929940 0.844615
H -2.921382 0.605286 -0.590061
H -3.897247 -0.672663 0.161929
