18

C 1.975640 -2.009592 -0.065115
O 2.367320 -2.107475 -1.227120
N 1.131906 -1.024923 0.363281
H 0.934409 -0.986728 1.359298
C 0.625359 0.064298 -0.494304
H 0.532713 -0.357412 -1.504674
C 1.624092 1.246684 -0.542393
O 1.749757 1.875673 -1.591291
H -0.655264 0.993830 1.006857
H -1.099756 1.347989 -0.672245
C -0.735775 0.569176 0.003881
S -1.981732 -0.795093 0.018793
C -3.367492 0.123047 0.375298
N -4.310820 0.779363 0.663600
N 2.324851 1.548021 0.587048
H 2.279396 -2.716307 0.723880
H 2.278677 0.994832 1.433055
H 2.975935 2.318991 0.515273
