18

C 2.045192 -1.799569 0.610036
O 2.643743 -1.824144 -0.471439
N 1.072159 -0.885450 0.890310
H 0.752675 -0.804601 1.851086
C 0.592929 0.092086 -0.101509
H 0.654338 -0.398710 -1.083294
C 1.502782 1.339584 -0.104216
O 1.111521 2.383107 0.421101
H -1.096396 0.422417 1.256114
H -1.034757 1.525735 -0.117742
C -0.872467 0.489531 0.190790
S -2.031499 -0.591994 -0.752972
C -3.491526 0.215624 -0.420286
N -4.501934 0.773253 -0.148904
N 2.709741 1.183740 -0.709350
H 2.272166 -2.494664 1.433669
H 2.982286 0.264881 -1.049619
H 3.339670 1.974111 -0.739730
