18

C 2.039972 -1.822372 0.481899
O 2.705591 -1.755172 -0.558226
N 1.028626 -0.952633 0.774620
H 0.683947 -0.957206 1.729315
C 0.597968 0.111454 -0.156144
H 0.693611 -0.308404 -1.168943
C 1.550080 1.320430 -0.005663
O 1.171302 2.316800 0.613067
H -0.914290 1.620888 0.263129
H -1.430889 0.319700 -0.856547
C -0.885747 0.544103 0.063670
S -1.805298 -0.284476 1.435285
C -3.383067 0.252030 1.097118
N -4.493546 0.609026 0.885602
N 2.772361 1.193365 -0.585256
H 2.231496 -2.575447 1.262662
H 3.036008 0.301788 -0.997201
H 3.425273 1.962124 -0.512187
