18

C 2.716270 -1.473871 0.128583
O 3.106166 -1.029682 -0.957282
N 1.538494 -1.086744 0.697913
H 1.391608 -1.288638 1.682564
C 0.631455 -0.139532 0.027746
H 0.736752 -0.308832 -1.053387
C 1.060403 1.306567 0.348250
O 0.554079 1.891876 1.306562
H -0.878144 -1.336334 1.051547
H -1.177191 0.410184 1.112944
C -0.826786 -0.409678 0.477803
S -1.919255 -0.532815 -1.000122
C -3.421846 -0.644294 -0.212871
N -4.462132 -0.689214 0.353547
N 2.015640 1.826520 -0.466928
H 3.300614 -2.191925 0.724945
H 2.508599 1.208104 -1.105634
H 2.328352 2.772770 -0.295421
