18

C 1.966468 -1.958739 0.007490
O 2.400841 -2.038781 -1.140614
N 1.096771 -0.986862 0.412787
H 0.869279 -0.947295 1.402776
C 0.597939 0.094624 -0.459485
H 0.540748 -0.330672 -1.470988
C 1.572818 1.299600 -0.485796
O 1.447918 2.123836 -1.391014
H -0.732348 1.005442 1.008830
H -1.140791 1.350406 -0.682534
C -0.782906 0.578109 0.004963
S -2.010531 -0.802255 -0.005934
C -3.419736 0.093597 0.314907
N -4.381893 0.733483 0.577522
N 2.524302 1.413983 0.482707
H 2.252353 -2.668026 0.800721
H 2.707356 0.690289 1.165200
H 3.140948 2.212745 0.411810
