18

C 1.974987 -1.823399 0.542279
O 2.612592 -1.819731 -0.516682
N 1.018737 -0.893016 0.825986
H 0.664065 -0.844460 1.776745
C 0.603191 0.137674 -0.140589
H 0.686845 -0.311890 -1.140755
C 1.545723 1.356419 -0.056292
O 1.160102 2.385718 0.499996
H -1.016767 0.777553 1.173592
H -1.065416 1.478242 -0.451164
C -0.855829 0.567647 0.114569
S -2.023663 -0.751782 -0.436078
C -3.495226 0.080772 -0.244320
N -4.534181 0.638234 -0.119498
N 2.770814 1.192894 -0.621834
H 2.150272 -2.559291 1.342466
H 3.031378 0.282860 -0.993984
H 3.420884 1.967077 -0.596871
