18

C 1.923574 -1.822699 0.490499
O 2.422548 -2.007667 -0.621220
N 0.946647 -0.898520 0.738416
H 0.567783 -0.869046 1.680669
C 0.570693 0.173089 -0.206058
H 0.679009 -0.240707 -1.219031
C 1.571160 1.355974 -0.049577
O 2.777545 1.129952 -0.050761
H -1.029744 1.045637 0.992662
H -1.201224 1.303345 -0.748148
C -0.899988 0.579558 0.012361
S -2.026868 -0.881358 -0.118552
C -3.513546 -0.056057 -0.138928
N -4.555867 0.506798 -0.154016
N 1.092613 2.624954 0.089080
H 2.203037 -2.424105 1.370915
H 0.114137 2.875391 0.038911
H 1.790594 3.351361 0.182378
