18

C 1.955346 -2.146226 -0.171255
O 2.263292 -2.276793 -1.354826
N 1.172637 -1.131239 0.300966
H 1.005172 -1.111709 1.302799
C 0.693642 0.007273 -0.503889
H 0.547823 -0.365641 -1.527547
C 1.768882 1.123324 -0.534764
O 2.423014 1.311848 -1.556438
H -0.526561 0.931546 1.062352
H -0.982712 1.371200 -0.588683
C -0.637711 0.551516 0.046862
S -1.934005 -0.765992 0.032294
C -3.271257 0.195811 0.452412
N -4.177157 0.882013 0.786536
N 1.947444 1.867645 0.593403
H 2.281216 -2.856987 0.605598
H 1.467658 1.686585 1.466177
H 2.653174 2.590446 0.539610
