18

C 2.069958 1.985664 -0.088901
O 3.103501 1.530453 0.413701
N 0.881041 1.318049 -0.063934
H 0.135697 1.660703 -0.664499
C 0.659690 0.047483 0.658357
H 1.298674 0.040642 1.555278
C 1.102119 -1.118624 -0.264555
O 0.309771 -1.966579 -0.663678
H -0.747578 -0.180559 2.255752
H -1.310629 0.896956 0.935142
C -0.807043 -0.041482 1.174013
S -1.976148 -1.341502 0.554688
C -3.124503 -0.341158 -0.211316
N -3.879727 0.383115 -0.769156
N 2.423896 -1.146855 -0.583899
H 2.040391 2.949453 -0.621354
H 3.059961 -0.467437 -0.173992
H 2.759703 -1.889348 -1.182807
