18

C 1.947722 -1.836094 0.494254
O 2.649844 -1.786645 -0.522205
N 0.959109 -0.931474 0.752436
H 0.569793 -0.907352 1.690794
C 0.600972 0.145159 -0.187792
H 0.716618 -0.269909 -1.199504
C 1.561214 1.341082 -0.015766
O 1.180684 2.340567 0.596379
H -0.955924 1.070220 1.009942
H -1.115703 1.328170 -0.742015
C -0.857204 0.599080 0.028658
S -2.037751 -0.815587 -0.108293
C -3.506201 0.042780 -0.136744
N -4.543496 0.616236 -0.158773
N 2.791769 1.196168 -0.573791
H 2.084451 -2.598409 1.277457
H 3.055182 0.296702 -0.968779
H 3.451872 1.957796 -0.491276
