18

C 1.899435 -1.888939 0.521573
O 2.479961 -2.027867 -0.553946
N 0.934846 -0.948518 0.750481
H 0.527342 -0.934469 1.681105
C 0.591848 0.150772 -0.170425
H 0.715986 -0.238552 -1.191623
C 1.590963 1.326787 0.005819
O 2.640293 1.329348 -0.630086
H -1.033870 1.029959 1.015275
H -1.128756 1.323337 -0.719746
C -0.875308 0.576864 0.037250
S -2.025343 -0.858809 -0.149105
C -3.489190 0.004340 -0.189934
N -4.495349 0.629080 -0.173202
N 1.278111 2.335485 0.867414
H 2.099282 -2.540723 1.387802
H 0.465256 2.337828 1.469227
H 1.957493 3.082077 0.935720
