18

C 1.841374 -2.092705 1.083958
O 2.461150 -2.462907 0.083255
N 0.983776 -1.029841 1.081486
H 0.508655 -0.802447 1.949762
C 0.845517 -0.117029 -0.072477
H 1.023899 -0.719055 -0.974998
C 1.925523 0.996081 -0.002865
O 2.848553 0.904703 0.804295
H -0.759466 1.098284 0.777044
H -0.671934 1.140382 -0.987658
C -0.569641 0.496299 -0.114597
S -1.849122 -0.830917 -0.249807
C -3.208551 0.160717 -0.493310
N -4.131681 0.873562 -0.700286
N 1.800955 2.052315 -0.854641
H 1.916878 -2.609620 2.054108
H 1.169795 2.040992 -1.645950
H 2.514239 2.766557 -0.786958
