18

C 1.950957 -1.923716 0.140630
O 2.452279 -1.995230 -0.980255
N 1.060039 -0.951892 0.494783
H 0.796288 -0.896872 1.474913
C 0.581355 0.112007 -0.411147
H 0.562827 -0.329523 -1.417017
C 1.541427 1.331482 -0.426272
O 1.217248 2.301571 -1.112657
H -0.804705 1.030382 1.001110
H -1.162043 1.345013 -0.708027
C -0.819762 0.587101 0.003084
S -2.034070 -0.804815 -0.023210
C -3.464327 0.077307 0.239392
N -4.443914 0.707057 0.459877
N 2.690930 1.309849 0.303078
H 2.194617 -2.632844 0.947679
H 3.053945 0.464283 0.721106
H 3.276083 2.133018 0.245324
