18

C 1.673496 1.888041 -0.609705
O 2.627776 1.899734 0.175870
N 0.691324 0.941825 -0.564139
H 0.079059 0.886860 -1.371412
C 0.588282 -0.072939 0.509879
H 0.969426 0.393706 1.431260
C 1.472737 -1.283266 0.132743
O 0.944951 -2.384431 -0.038575
H -0.880677 -1.579685 1.028140
H -1.238399 0.038788 1.687386
C -0.875611 -0.506313 0.813194
S -2.098955 -0.200551 -0.537262
C -3.123232 0.934626 0.210487
N -3.797137 1.754773 0.736840
N 2.808100 -1.052613 0.029360
H 1.564979 2.619808 -1.425590
H 3.178168 -0.134342 0.261625
H 3.414639 -1.825257 -0.210670
