18

C 1.945889 -1.865697 0.360447
O 2.712807 -1.744181 -0.601580
N 0.946951 -0.974462 0.625303
H 0.487827 -1.039452 1.529215
C 0.632789 0.157324 -0.267928
H 0.843641 -0.181533 -1.292973
C 1.549983 1.352729 0.077500
O 1.095421 2.316933 0.696639
H -0.938634 1.497100 0.424687
H -1.224963 0.761221 -1.181796
C -0.863968 0.578107 -0.166973
S -2.005485 -0.664536 0.590109
C -3.496760 0.097542 0.292654
N -4.528620 0.627567 0.047908
N 2.838051 1.245445 -0.343113
H 2.029012 -2.687279 1.089246
H 3.148094 0.383083 -0.784267
H 3.476396 2.004423 -0.145508
