18

C 1.983497 -2.065756 -0.163547
O 2.341948 -2.154403 -1.336787
N 1.162526 -1.078720 0.301960
H 0.980002 -1.068385 1.301207
C 0.665752 0.047639 -0.511017
H 0.551724 -0.333392 -1.535599
C 1.695461 1.202635 -0.524936
O 2.099917 1.644271 -1.597658
H -0.592056 0.944761 1.033352
H -1.040700 1.366611 -0.626600
C -0.684175 0.558218 0.016926
S -1.949665 -0.787786 -0.009424
C -3.315930 0.141854 0.389417
N -4.243957 0.805403 0.708406
N 2.109633 1.687164 0.680048
H 2.298122 -2.787816 0.607322
H 1.800356 1.308887 1.566664
H 2.789143 2.435846 0.649454
