18

C 2.822842 -1.403577 0.294318
O 3.241176 -1.004999 -0.798546
N 1.589191 -1.071305 0.772705
H 1.401440 -1.214724 1.760554
C 0.653959 -0.247920 -0.009838
H 0.830945 -0.485418 -1.069328
C 0.950744 1.245997 0.222827
O 0.343338 1.845337 1.110345
H -0.924006 -1.681557 0.391421
H -1.009268 -0.204758 1.381723
C -0.791471 -0.597827 0.384280
S -1.963257 0.156016 -0.821494
C -3.426891 -0.240269 -0.054502
N -4.460418 -0.505961 0.461767
N 1.906102 1.786827 -0.577747
H 3.423556 -2.031561 0.970609
H 2.482177 1.168126 -1.142355
H 2.132559 2.765125 -0.457991
