18

C 2.121389 -1.765805 0.682321
O 2.690651 -1.819637 -0.413887
N 1.124984 -0.873363 0.949197
H 0.828974 -0.758135 1.913948
C 0.583135 0.039190 -0.072174
H 0.634294 -0.491912 -1.033323
C 1.452758 1.313702 -0.155495
O 1.044582 2.368247 0.334479
H -1.182230 0.059922 1.239283
H -1.012782 1.488084 0.219143
C -0.890844 0.400762 0.245296
S -2.016320 -0.351125 -1.006750
C -3.474834 0.390497 -0.542473
N -4.486883 0.891537 -0.181700
N 2.646834 1.167969 -0.788225
H 2.395294 -2.413853 1.529618
H 2.940077 0.243366 -1.094225
H 3.250517 1.974859 -0.871950
