18

C -0.907547 2.417640 0.371419
O -0.309174 2.747134 -0.654219
N -1.167331 1.116343 0.691725
H -1.778867 0.963134 1.489185
C -0.939920 -0.015206 -0.220906
H -0.962760 0.356305 -1.255410
C -2.125593 -1.011052 -0.129224
O -3.108801 -0.825547 -0.842091
H 0.478497 -0.988262 1.128958
H 0.508553 -1.601109 -0.533246
C 0.403943 -0.701549 0.079068
S 1.830079 0.410633 -0.317777
C 3.085208 -0.627616 0.172565
N 3.938992 -1.386512 0.488030
N -2.045500 -2.059252 0.737300
H -1.263471 3.149738 1.113510
H -1.241201 -2.237548 1.324840
H -2.837798 -2.688216 0.755641
