18

C 1.872077 -1.800180 0.519300
O 2.582150 -1.816667 -0.493192
N 0.929711 -0.840718 0.752144
H 0.530230 -0.790705 1.684874
C 0.634410 0.246319 -0.203339
H 0.731904 -0.164193 -1.220119
C 1.711328 1.345873 -0.034634
O 1.462533 2.383706 0.573035
H -1.431940 0.312195 -0.829579
H -1.196735 0.337166 0.943286
C -0.834480 0.721496 -0.012162
S -1.208278 2.535877 0.039727
C -2.831543 2.465708 0.548278
N -3.962703 2.431692 0.902289
N 2.921180 1.075947 -0.591834
H 1.964046 -2.549077 1.321682
H 3.093688 0.154057 -0.984986
H 3.657921 1.763405 -0.506671
