18

C 1.934284 -1.872026 0.590119
O 2.591568 -1.868011 -0.456323
N 0.973800 -0.939255 0.852985
H 0.564235 -0.908790 1.782241
C 0.638937 0.118989 -0.112171
H 0.786386 -0.312903 -1.113088
C 1.599845 1.309730 0.066934
O 1.354359 2.154324 0.929184
H -0.977087 1.025292 1.033421
H -1.034298 1.352805 -0.708405
C -0.818185 0.590320 0.043099
S -2.001616 -0.804510 -0.215252
C -3.464674 0.063882 -0.206533
N -4.497772 0.645286 -0.204656
N 2.673335 1.333372 -0.765872
H 2.084725 -2.615411 1.388624
H 2.917019 0.488650 -1.273902
H 3.324350 2.102331 -0.677675
