18

C 1.977029 -1.824663 0.542191
O 2.613822 -1.820026 -0.517262
N 1.020620 -0.894757 0.827109
H 0.666594 -0.846651 1.778190
C 0.603839 0.136228 -0.138481
H 0.686696 -0.315299 -1.137792
C 1.544396 1.356446 -0.056171
O 1.157589 2.385967 0.498792
H -1.017307 0.781157 1.174645
H -1.068818 1.473666 -0.449084
C -0.855041 0.564395 0.117320
S -2.024975 -0.751008 -0.437878
C -3.494797 0.084749 -0.247048
N -4.532578 0.644429 -0.122953
N 2.768948 1.194437 -0.623317
H 2.153347 -2.561153 1.341696
H 3.031005 0.284240 -0.994005
H 3.418139 1.969363 -0.598391
