18

C 1.741092 1.957860 -0.393179
O 2.803743 1.776259 0.211600
N 0.684281 1.101457 -0.294367
H -0.063847 1.203795 -0.974954
C 0.646760 -0.044690 0.638861
H 1.220563 0.239278 1.534263
C 1.322017 -1.264725 -0.025058
O 0.658651 -2.277998 -0.244626
H -0.756805 -1.197608 1.803559
H -1.204571 0.506673 1.642685
C -0.788108 -0.352318 1.113913
S -1.930323 -0.756666 -0.288630
C -3.026143 0.541667 -0.173539
N -3.797060 1.439249 -0.112796
N 2.644474 -1.140035 -0.312916
H 1.582401 2.803470 -1.080763
H 3.140756 -0.295613 -0.038888
H 3.121157 -1.920682 -0.743949
