18

C 2.777603 -1.438759 0.206504
O 3.170824 -1.019197 -0.887924
N 1.574048 -1.079814 0.739165
H 1.415790 -1.248919 1.728184
C 0.642325 -0.198405 0.017319
H 0.773877 -0.403827 -1.055256
C 1.003997 1.274679 0.289671
O 0.453069 1.868399 1.217645
H -0.892610 -1.554561 0.753904
H -1.083438 0.125589 1.299773
C -0.805693 -0.509083 0.451691
S -1.949396 -0.174934 -0.951883
C -3.431208 -0.421570 -0.156552
N -4.476988 -0.588670 0.376172
N 1.951342 1.805696 -0.527276
H 3.378641 -2.109368 0.840528
H 2.482373 1.185934 -1.133486
H 2.218113 2.771142 -0.387750
