18

C 1.905267 -1.900920 0.520845
O 2.519944 -2.000446 -0.539468
N 0.943440 -0.959200 0.753048
H 0.539772 -0.943398 1.685325
C 0.604058 0.140257 -0.168912
H 0.725746 -0.259956 -1.186135
C 1.589704 1.323787 -0.005320
O 2.445047 1.531456 -0.860995
H -0.991884 1.053710 1.019970
H -1.100570 1.334173 -0.718657
C -0.854745 0.589728 0.043203
S -2.027408 -0.829277 -0.122489
C -3.486176 0.043408 -0.160828
N -4.511730 0.635830 -0.188373
N 1.461839 2.103840 1.105349
H 2.079048 -2.581134 1.370365
H 0.826335 1.895929 1.865425
H 2.115314 2.872114 1.183447
