18

C 1.824226 1.972598 -0.302244
O 2.897729 1.708322 0.250674
N 0.729105 1.166259 -0.204797
H -0.042833 1.338378 -0.844500
C 0.657905 -0.026951 0.662491
H 1.276172 0.159325 1.554424
C 1.251213 -1.235976 -0.100887
O 0.551458 -2.208182 -0.376627
H -0.735270 -0.896671 2.048785
H -1.225286 0.704730 1.456838
C -0.784398 -0.251818 1.169884
S -1.947596 -1.016209 -0.057785
C -3.052028 0.267450 -0.240712
N -3.768655 1.200257 -0.382836
N 2.570933 -1.150977 -0.416075
H 1.683821 2.859398 -0.940143
H 3.113566 -0.350173 -0.101746
H 2.998786 -1.919915 -0.914250
