ModifiedResHydrated.pdb
 OpenBabel02212013283D

 18 17  0  0  1  0  0  0  0  0999 V2000
    4.6090   12.8590   13.7410 C   0  0  0  0  0  0  0  0  0  0  0  0
    5.3320   13.7140   14.2560 O   0  0  0  0  0  0  0  0  0  0  0  0
    5.0300   11.6080   13.4860 N   0  0  0  0  0  0  0  0  0  0  0  0
    4.3380   10.9450   13.2010 H   0  0  0  0  0  0  0  0  0  0  0  0
    6.3850   11.1360   13.5860 C   0  0  2  0  0  0  0  0  0  0  0  0
    6.7180   11.6230   14.3930 H   0  0  0  0  0  0  0  0  0  0  0  0
    7.2090   11.5240   12.3930 C   0  0  0  0  0  0  0  0  0  0  0  0
    8.4380   11.5130   12.4560 O   0  0  0  0  0  0  0  0  0  0  0  0
    5.6450    9.5570   11.9630 H   0  0  0  0  0  0  0  0  0  0  0  0
    6.4810    8.7180   13.3050 H   0  0  0  0  0  0  0  0  0  0  0  0
    5.7620    9.4960   13.0450 C   0  0  0  0  0  0  0  0  0  0  0  0
    4.1690    9.0880   13.7920 S   0  0  0  0  0  0  0  0  0  0  0  0
    4.0600    7.5280   12.9760 C   0  0  0  0  0  0  0  0  0  0  0  0
    3.9790    6.5030   12.4460 N   0  0  0  0  0  0  0  0  0  0  0  0
    6.5620   11.7680   11.2380 N   0  0  0  0  0  0  0  0  0  0  0  0
    3.6400   13.1140   13.4950 H   0  0  0  0  0  0  0  0  0  0  0  0
    5.5780   11.7710   11.2160 H   0  0  0  0  0  0  0  0  0  0  0  0
    7.0730   11.9440   10.4150 H   0  0  0  0  0  0  0  0  0  0  0  0
  1  3  1  0  0  0  0
  1  2  2  0  0  0  0
  1 16  1  0  0  0  0
  3  4  1  0  0  0  0
  3  5  1  0  0  0  0
  5 11  1  0  0  0  0
  5  7  1  0  0  0  0
  5  6  1  1  0  0  0
  7 15  1  0  0  0  0
  7  8  2  0  0  0  0
  9 11  1  0  0  0  0
 10 11  1  0  0  0  0
 11 12  1  0  0  0  0
 12 13  1  0  0  0  0
 13 14  3  0  0  0  0
 15 17  1  0  0  0  0
 15 18  1  0  0  0  0
M  END
