68

C 7.123737 -0.381207 -3.640820
C 6.855972 0.630322 -2.708991
C 5.939479 0.400884 -1.662873
C 5.338383 -0.882494 -1.635710
N 5.583455 -1.858929 -2.519675
C 6.461433 -1.605176 -3.500435
C 5.594272 1.433079 -0.619498
C 6.122174 2.734578 -0.555507
C 5.657631 3.531168 0.497606
N 4.774808 3.132323 1.408551
C 4.330796 1.868353 1.265206
N 4.701779 1.024907 0.302867
N 3.428237 1.456476 2.207482
C 2.720339 0.229151 2.308487
C 3.301177 -0.847116 3.037606
C 2.562013 -2.036796 3.111337
C 1.308616 -2.206951 2.512702
C 0.754523 -1.136470 1.799202
C 1.469678 0.071027 1.701687
N -0.502496 -1.165373 1.110937
C -1.509092 -2.104056 1.120435
C -2.736801 -1.847252 0.268278
C -2.704548 -1.140611 -0.945143
C -3.875886 -0.940531 -1.678859
C -5.114253 -1.442324 -1.236193
C -5.128880 -2.166705 -0.029037
C -3.960463 -2.381868 0.704933
C -6.400166 -1.189475 -2.025168
N -7.169660 0.039408 -1.760053
C -6.625042 1.334753 -2.226644
C -5.801644 2.109256 -1.165506
N -6.504282 2.313675 0.122424
C -7.445835 3.436751 0.187859
C -7.005202 1.003296 0.599477
C -7.827662 0.201453 -0.442985
O -1.452915 -3.115210 1.801974
C 4.666839 -0.747757 3.694093
H 7.826820 -0.227218 -4.454052
H 7.373214 1.580202 -2.821495
H 4.621933 -1.126450 -0.856013
H 6.638711 -2.419639 -4.200758
H 6.842457 3.132822 -1.259701
H 6.017800 4.552816 0.614713
H 3.089447 2.102064 2.906847
H 2.974847 -2.886908 3.652663
H 0.774926 -3.146305 2.590375
H 1.080007 0.914092 1.147665
H -0.732389 -0.304216 0.635880
H -1.758269 -0.756518 -1.317707
H -3.819892 -0.378672 -2.611141
H -6.065166 -2.575826 0.349954
H -3.979439 -2.949974 1.631552
H -6.157269 -1.189492 -3.097756
H -7.081944 -2.035642 -1.855919
H -6.101584 1.216070 -3.142822
H -7.863251 2.257185 -2.540396
H -5.474011 3.432941 -1.740192
H -4.736555 1.519017 -0.927033
H -8.296477 3.278250 -0.484296
H -6.942714 4.368818 -0.093440
H -7.821545 3.555202 1.210418
H -7.809405 1.206972 1.751476
H -5.863257 0.223894 0.977908
H -9.135263 1.071950 -0.692252
H -8.155421 -0.732348 -0.068659
H 4.734087 0.121342 4.363284
H 5.461205 -0.642801 2.941366
H 4.916325 -1.630860 4.298304
