68

C 8.713348 -0.677098 -2.495307
C 8.080939 0.431347 -1.917071
C 6.885178 0.261587 -1.190577
C 6.396828 -1.066205 -1.102049
N 6.989414 -2.135568 -1.649636
C 8.126621 -1.936312 -2.331151
C 6.142972 1.398961 -0.536001
C 6.525168 2.750817 -0.573059
C 5.683903 3.641262 0.104001
N 4.584222 3.284088 0.761304
C 4.304480 1.965449 0.746519
N 5.031582 1.034444 0.130663
N 3.172942 1.604013 1.433986
C 2.534662 0.336349 1.581315
C 3.210533 -0.748309 2.214553
C 2.514972 -1.963687 2.310431
C 1.215876 -2.156481 1.828542
C 0.562705 -1.078006 1.220785
C 1.231384 0.153904 1.101483
N -0.756797 -1.118085 0.663056
C -1.734254 -2.084767 0.732317
C -3.045494 -1.821933 0.017066
C -3.145022 -1.062586 -1.160382
C -4.387414 -0.845602 -1.759728
C -5.568380 -1.386554 -1.217450
C -5.449822 -2.176742 -0.058384
C -4.210586 -2.403292 0.544798
C -6.930220 -1.103060 -1.853815
N -7.668624 0.102872 -1.436222
C -7.175780 1.426445 -1.880207
C -6.242572 2.135761 -0.865243
N -6.808375 2.262196 0.497818
C -7.729542 3.380896 0.727804
C -7.263681 0.926613 0.952630
C -8.184583 0.182696 -0.049837
O -1.587372 -3.121529 1.359365
C 4.606483 -0.652386 2.807838
H 9.635277 -0.569986 -3.059107
H 8.540445 1.408406 -2.044242
H 5.475167 -1.269347 -0.563380
H 8.582490 -2.825491 -2.763694
H 7.405359 3.118573 -1.085625
H 5.910380 4.707196 0.118889
H 2.599709 2.329540 1.841132
H 2.997296 -2.815874 2.787738
H 0.719440 -3.114564 1.922862
H 0.760674 1.000002 0.619134
H -1.055523 -0.245875 0.250892
H -2.247008 -0.642324 -1.606224
H -4.433578 -0.236352 -2.662593
H -6.338217 -2.617407 0.393186
H -4.128283 -3.011668 1.442036
H -6.800736 -1.039859 -2.944070
H -7.589125 -1.962959 -1.664732
H -6.757279 1.365381 -2.842326
H -8.436829 2.360629 -2.004722
H -5.968804 3.491135 -1.388196
H -5.173621 1.542037 -0.773973
H -8.646552 3.263294 0.139969
H -7.251258 4.327504 0.451785
H -7.996271 3.438109 1.789303
H -7.830332 1.038844 2.052877
H -6.082144 0.125655 1.150281
H -9.512275 1.049113 -0.106530
H -8.468121 -0.788318 0.303538
H 4.804224 0.335036 3.246943
H 5.377352 -0.831871 2.046526
H 4.774428 -1.384000 3.610430
