887
 OpenBabel04072016013D

  6  5  0  0  0  0  0  0  0  0999 V2000
    0.7079    0.0000    0.0000 O   0  0  0  0  0  0  0  0  0  0  0  0
   -0.7079    0.0000    0.0000 C   0  0  0  0  0  0  0  0  0  0  0  0
   -1.0732   -0.7690    0.6852 H   0  0  0  0  0  0  0  0  0  0  0  0
   -1.0731   -0.1947   -1.0113 H   0  0  0  0  0  0  0  0  0  0  0  0
   -1.0632    0.9786    0.3312 H   0  0  0  0  0  0  0  0  0  0  0  0
    0.9936   -0.8804   -0.2980 H   0  0  0  0  0  0  0  0  0  0  0  0
  1  2  1  0  0  0  0
  1  6  1  0  0  0  0
  2  3  1  0  0  0  0
  2  4  1  0  0  0  0
  2  5  1  0  0  0  0
M  END
