178
 OpenBabel04062014263D

  9  8  0  0  0  0  0  0  0  0999 V2000
    0.6073   -1.1657    0.0018 O   0  0  0  0  0  0  0  0  0  0  0  0
    0.7522    1.1306    0.0015 N   0  0  0  0  0  0  0  0  0  0  0  0
   -1.4275    0.0969    0.0013 C   0  0  0  0  0  0  0  0  0  0  0  0
    0.0680   -0.0618   -0.0046 C   0  0  0  0  0  0  0  0  0  0  0  0
   -1.8768   -0.6906   -0.6101 H   0  0  0  0  0  0  0  0  0  0  0  0
   -1.7917    0.0140    1.0288 H   0  0  0  0  0  0  0  0  0  0  0  0
   -1.7274    1.0655   -0.4084 H   0  0  0  0  0  0  0  0  0  0  0  0
    1.7667    1.1492    0.0031 H   0  0  0  0  0  0  0  0  0  0  0  0
    0.2815    2.0298    0.0081 H   0  0  0  0  0  0  0  0  0  0  0  0
  1  4  2  0  0  0  0
  2  4  1  0  0  0  0
  2  8  1  0  0  0  0
  2  9  1  0  0  0  0
  3  4  1  0  0  0  0
  3  5  1  0  0  0  0
  3  6  1  0  0  0  0
  3  7  1  0  0  0  0
M  END
