68

C 4.003896 5.000603 -4.426641
C 4.041569 4.701654 -3.058397
C 4.387453 3.404267 -2.629155
C 4.681137 2.470155 -3.653469
N 4.648858 2.740506 -4.965251
C 4.315862 3.985018 -5.336548
C 4.447732 2.997351 -1.178713
C 4.157342 3.836461 -0.088091
C 4.266239 3.254663 1.180275
N 4.611037 1.988947 1.395234
C 4.867287 1.266976 0.288190
N 4.798702 1.714349 -0.964406
N 5.220174 -0.030508 0.521355
C 4.474850 -1.241907 0.376686
C 5.165818 -2.489671 0.339706
C 4.384938 -3.647367 0.197045
C 2.990471 -3.635534 0.085775
C 2.328155 -2.403215 0.126538
C 3.077653 -1.221652 0.267641
N 0.912591 -2.220829 0.006409
C -0.086865 -3.110864 -0.314144
C -1.460271 -2.547685 -0.620788
C -1.655765 -1.324418 -1.282410
C -2.946446 -0.846612 -1.518082
C -4.082875 -1.569193 -1.108556
C -3.872272 -2.800354 -0.458462
C -2.585107 -3.292894 -0.230916
C -5.490474 -1.005854 -1.310247
N -6.022998 -0.054446 -0.318096
C -5.513623 1.335216 -0.315162
C -4.339130 1.583501 0.666075
N -4.620639 1.171518 2.061007
C -5.377775 2.118042 2.888498
C -5.095351 -0.234116 2.062279
C -6.251345 -0.523168 1.068457
O 0.090084 -4.318191 -0.334852
C 6.676476 -2.614100 0.439870
H 3.741383 5.993357 -4.780037
H 3.798973 5.494084 -2.354554
H 4.953397 1.451711 -3.390390
H 4.300149 4.171691 -6.409087
H 3.862860 4.874306 -0.183323
H 4.059431 3.840748 2.075092
H 6.201372 -0.084950 0.752687
H 4.875257 -4.619351 0.160382
H 2.429331 -4.554081 -0.035699
H 2.581760 -0.260189 0.294417
H 0.607686 -1.262907 0.107123
H -0.793499 -0.752687 -1.616863
H -3.064704 0.111921 -2.023674
H -4.723542 -3.387740 -0.115001
H -2.430648 -4.244595 0.271205
H -5.530381 -0.510567 -2.291378
H -6.200252 -1.844844 -1.356526
H -5.300398 1.661102 -1.299676
H -6.689628 2.245621 0.206064
H -4.066533 3.064599 0.654504
H -3.402815 1.060384 0.331500
H -6.397665 2.245114 2.508554
H -4.879339 3.093969 2.898640
H -5.429227 1.757773 3.922336
H -5.378523 -0.540111 3.128213
H -3.936643 -1.077737 1.649927
H -7.488811 0.286457 1.627949
H -6.541783 -1.591988 1.073701
H 7.044230 -2.263892 1.414748
H 7.180830 -2.022275 -0.337065
H 7.029946 -3.647971 0.323275
