68

C -0.172593 4.495079 -1.226870
C 1.162423 4.387799 -0.812702
C 1.752172 3.117283 -0.658746
C 0.921103 2.013480 -0.974390
N -0.353068 2.093388 -1.379219
C -0.884957 3.319908 -1.492357
C 3.173529 2.906502 -0.195567
C 4.113250 3.918516 0.056504
C 5.378162 3.482592 0.467790
N 5.716527 2.207924 0.642352
C 4.745126 1.303718 0.398219
N 3.512555 1.616006 -0.012524
N 5.096282 -0.023676 0.599035
C 4.396412 -1.269578 0.396003
C 5.119124 -2.500937 0.409581
C 4.378927 -3.682069 0.225740
C 2.988707 -3.716899 0.062138
C 2.289970 -2.506956 0.111497
C 3.001166 -1.311283 0.295907
N 0.878129 -2.339164 -0.027937
C -0.112587 -3.212662 -0.410138
C -1.471975 -2.610731 -0.712014
C -1.620904 -1.359677 -1.334651
C -2.890710 -0.830112 -1.565216
C -4.056114 -1.540674 -1.225004
C -3.891796 -2.785467 -0.585735
C -2.624781 -3.331092 -0.361083
C -5.421540 -0.866802 -1.339791
N -5.904505 0.048096 -0.292424
C -5.360177 1.423369 -0.236504
C -4.168960 1.609179 0.738466
N -4.431671 1.128297 2.115309
C -5.168844 2.038647 2.999746
C -4.925521 -0.268974 2.051123
C -6.110292 -0.485583 1.073011
O 0.063054 -4.419711 -0.460764
C 6.626164 -2.582021 0.579340
H -0.649797 5.463966 -1.340753
H 1.709645 5.302191 -0.597158
H 1.320074 1.006378 -0.918669
H -1.923029 3.359696 -1.818930
H 3.915997 4.975959 -0.069609
H 6.168120 4.205633 0.669938
H 6.064116 -0.087099 0.877182
H 4.900388 -4.638110 0.205793
H 2.454653 -4.647777 -0.085541
H 2.465241 -0.377757 0.352723
H 0.556623 -1.388164 0.086840
H -0.741438 -0.784286 -1.614014
H -2.963040 0.163660 -2.007322
H -4.765427 -3.342054 -0.247109
H -2.506127 -4.297301 0.123232
H -5.547742 -0.330150 -2.290415
H -6.162073 -1.671963 -1.453410
H -5.149625 1.787124 -1.214043
H -6.513116 2.340553 0.342136
H -3.863143 3.044734 0.794030
H -3.181274 1.033809 0.325587
H -6.191616 2.196053 2.638972
H -4.659432 3.007406 3.055448
H -5.213218 1.624785 4.013838
H -5.180972 -0.626687 3.094431
H -3.785316 -1.107058 1.556593
H -7.314637 0.302951 1.696258
H -6.417024 -1.554474 1.030129
H 6.936760 -2.223173 1.570646
H 7.149033 -1.973399 -0.171897
H 7.014524 -3.604845 0.478413
