68

C -7.175816 -4.010656 -1.045814
C -5.971712 -3.608378 -0.454252
C -5.702371 -2.238183 -0.263609
C -6.705189 -1.342928 -0.710776
N -7.861684 -1.710769 -1.278695
C -8.085337 -3.023469 -1.438461
C -4.438655 -1.715826 0.372704
C -3.389053 -2.522702 0.847994
C -2.297380 -1.847815 1.405701
N -2.209882 -0.524362 1.502766
C -3.266997 0.166837 1.034075
N -4.352247 -0.375426 0.482438
N -3.189485 1.531600 1.153339
C -2.155232 2.486177 0.856419
C -2.423442 3.877667 1.035797
C -1.395436 4.777387 0.713013
C -0.136949 4.387020 0.244288
C 0.138043 3.019401 0.130134
C -0.889384 2.096976 0.395877
N 1.364996 2.453422 -0.359608
C 2.620870 3.001344 -0.563549
C 3.674089 1.974500 -0.937144
C 3.467907 0.903050 -1.817444
C 4.502814 0.004001 -2.085017
C 5.824357 0.175441 -1.614107
C 5.958310 1.207287 -0.650066
C 4.951238 2.137354 -0.382895
C 6.741570 -1.085380 -1.653836
N 6.324199 -1.984763 -0.530747
C 5.389031 -3.094841 -0.867546
C 3.874649 -2.889890 -0.591910
N 3.574353 -2.467492 0.797607
C 3.532374 -3.529653 1.809949
C 4.421909 -1.288652 1.111764
C 5.935844 -1.496704 0.822857
O 2.744942 4.149865 -0.170813
C -3.753251 4.417513 1.535995
H -7.404255 -5.060945 -1.201073
H -5.264920 -4.377011 -0.151488
H -6.564466 -0.271186 -0.603435
H -9.035684 -3.282762 -1.902553
H -3.379674 -3.604791 0.808737
H -1.430421 -2.378942 1.797776
H -4.077830 1.894836 1.464002
H -1.575906 5.846924 0.815434
H 0.622224 5.117225 -0.003336
H -0.706230 1.039614 0.267878
H 1.385260 1.444997 -0.414288
H 2.492104 0.768088 -2.277430
H 4.280713 -0.846133 -2.729682
H 6.893714 1.306367 -0.098627
H 5.123331 2.963104 0.303568
H 6.993373 -1.754129 -2.479341
H 7.505682 -0.300202 -1.558529
H 5.571471 -3.500948 -2.315911
H 5.843861 -4.309813 -0.021038
H 3.205743 -4.075846 -0.853221
H 3.503194 -2.228170 -1.186453
H 4.515889 -3.997166 1.918936
H 2.803466 -4.297143 1.525033
H 3.223552 -3.120626 2.778830
H 4.259600 -0.973784 2.528502
H 4.045876 -0.474757 0.586721
H 6.413113 -2.609113 1.825472
H 6.470485 -0.690056 1.068471
H -4.040910 4.004400 2.513309
H -4.559976 4.184356 0.835444
H -3.747642 5.504013 1.655597
