68

C -7.718872 -3.999556 0.529550
C -6.637653 -3.417694 -0.145363
C -6.297866 -2.071025 0.095528
C -7.105121 -1.388414 1.039149
N -8.141287 -1.930166 1.692959
C -8.436443 -3.212621 1.436506
C -5.158486 -1.364636 -0.594994
C -4.298093 -1.946795 -1.541323
C -3.301916 -1.109517 -2.053922
N -3.140396 0.164610 -1.709161
C -4.034309 0.646528 -0.821148
N -5.000740 -0.072482 -0.247911
N -3.848255 1.948547 -0.417120
C -2.687425 2.772275 -0.190666
C -2.880750 4.138191 0.181137
C -1.730435 4.913452 0.395807
C -0.427458 4.422585 0.268431
C -0.251924 3.081592 -0.091061
C -1.382142 2.273520 -0.308604
N 1.015847 2.436332 -0.277328
C 2.291233 2.869068 0.005973
C 3.453541 1.944949 -0.300294
C 3.466316 1.041874 -1.375786
C 4.580566 0.231015 -1.605173
C 5.741411 0.335957 -0.816009
C 5.703161 1.223950 0.275649
C 4.591911 2.033959 0.518272
C 6.915597 -0.621266 -1.008075
N 6.957577 -1.946997 -0.372833
C 6.082462 -3.021210 -0.891964
C 4.741145 -3.182991 -0.131266
N 4.872729 -3.310889 1.338294
C 5.194946 -4.645997 1.854466
C 5.708782 -2.194288 1.836382
C 7.062989 -2.021275 1.101745
O 2.506895 3.946070 0.538685
C -4.246815 4.781313 0.352705
H -8.000392 -5.034185 0.357201
H -6.085054 -4.031807 -0.852109
H -6.896703 -0.348672 1.274347
H -9.284717 -3.622575 1.982200
H -4.364210 -2.976546 -1.870256
H -2.585673 -1.490394 -2.781572
H -4.749690 2.390411 -0.313648
H -1.837420 5.960035 0.678525
H 0.430609 5.059779 0.442898
H -1.257707 1.240284 -0.601020
H 0.954952 1.464270 -0.545046
H 2.600122 0.973866 -2.029067
H 4.549468 -0.482018 -2.429159
H 6.557053 1.295491 0.948859
H 4.585247 2.738681 1.346048
H 7.104978 -0.785817 -2.078406
H 7.836910 -0.096220 -0.715910
H 5.949230 -2.925834 -1.932906
H 6.853420 -4.385439 -0.661200
H 4.073858 -4.333923 -0.635914
H 3.946406 -2.070541 -0.381057
H 6.188835 -4.967705 1.523255
H 4.454008 -5.374749 1.506549
H 5.172485 -4.643175 2.950211
H 5.959467 -2.384761 3.207758
H 4.945170 -0.981384 1.677126
H 7.884444 -3.324383 1.434822
H 7.626248 -1.205712 1.479823
H -4.841602 4.262057 1.117462
H -4.820631 4.760890 -0.584551
H -4.190413 5.833853 0.662999
