68

C 10.378129 0.733788 0.067235
C 9.215375 1.409061 -0.326660
C 7.949049 0.812523 -0.145768
C 7.962978 -0.473043 0.445245
N 9.063037 -1.134173 0.828701
C 10.246661 -0.534819 0.639420
C 6.654503 1.480162 -0.551103
C 6.593145 2.757665 -1.132258
C 5.316820 3.218944 -1.452263
N 4.202716 2.530885 -1.240597
C 4.337010 1.306938 -0.676283
N 5.516616 0.780403 -0.331804
N 3.091772 0.687307 -0.506688
C 2.440286 -0.513216 -0.014787
C 3.089716 -1.614851 0.621639
C 2.287732 -2.694622 1.032935
C 0.902648 -2.754014 0.867992
C 0.267657 -1.668526 0.261326
C 1.041042 -0.574521 -0.164731
N -1.140629 -1.576893 0.002464
C -2.183702 -2.360441 0.442858
C -3.592229 -1.994025 0.017483
C -3.903155 -1.404020 -1.218560
C -5.228058 -1.107251 -1.547266
C -6.290880 -1.433315 -0.683792
C -5.961772 -1.996934 0.563655
C -4.641101 -2.300914 0.900390
C -7.722463 -1.007366 -1.002782
N -8.233874 0.326820 -0.653833
C -7.781575 1.495063 -1.441400
C -6.588251 2.265600 -0.820272
N -6.780276 2.665426 0.592620
C -7.558825 3.886722 0.827462
C -7.181929 1.470018 1.370225
C -8.377434 0.680722 0.776260
O -2.011986 -3.300233 1.202675
C 4.569286 -1.746631 0.904568
H 11.360685 1.176518 -0.066390
H 9.331965 2.393119 -0.773055
H 7.032455 -0.994157 0.617972
H 11.121495 -1.098037 0.960162
H 7.454689 3.381171 -1.335371
H 5.183290 4.200134 -1.906992
H 2.418322 1.347925 -0.867649
H 2.750323 -3.554488 1.516980
H 0.330798 -3.610570 1.202750
H 0.553268 0.265850 -0.640479
H -1.429945 -0.729917 -0.465422
H -3.105223 -1.179652 -1.921956
H -5.435659 -0.624053 -2.502146
H -6.747175 -2.214415 1.287184
H -4.400436 -2.764909 1.853534
H -7.940528 -1.150961 -2.070549
H -8.405341 -1.743667 -0.554234
H -7.609843 1.224497 -2.450673
H -8.975037 2.521199 -1.453986
H -6.356860 3.447895 -1.610559
H -5.482949 1.494865 -0.877345
H -8.599390 3.758654 0.508138
H -7.120863 4.726045 0.275170
H -7.545630 4.143535 1.892901
H -7.487719 1.850092 2.655016
H -6.021743 0.573278 1.417434
H -9.611240 1.656286 0.882123
H -8.622663 -0.188085 1.360597
H 5.135201 -1.779993 -0.035786
H 4.837601 -2.656075 1.459624
H 4.931840 -0.903081 1.506879
