68

C -2.373465 1.843728 5.333820
C -1.187388 1.437107 5.959248
C -0.287641 0.595402 5.276649
C -0.652017 0.247191 3.952708
N -1.779507 0.624181 3.339816
C -2.626407 1.405340 4.028978
C 0.992169 0.071087 5.876929
C 1.528082 0.456029 7.117211
C 2.735221 -0.155656 7.477122
N 3.370501 -1.060136 6.734304
C 2.776131 -1.380259 5.567114
N 1.634529 -0.847806 5.132566
N 3.431303 -2.328153 4.802870
C 3.185516 -2.887081 3.496087
C 4.237805 -3.580846 2.824417
C 3.961084 -4.088585 1.544534
C 2.727181 -3.950650 0.899362
C 1.693965 -3.292005 1.574953
C 1.941138 -2.781441 2.859093
N 0.378383 -3.060210 1.053052
C -0.136993 -3.259838 -0.205510
C -1.493992 -2.642354 -0.456778
C -1.592089 -1.384799 -1.071068
C -2.846286 -0.837034 -1.353176
C -4.034313 -1.540625 -1.074473
C -3.915962 -2.767776 -0.391613
C -2.667347 -3.323987 -0.101483
C -5.404020 -0.970547 -1.448538
N -6.103271 -0.002801 -0.589029
C -5.636572 1.403524 -0.548474
C -4.723571 1.774340 0.648382
N -5.274099 1.399880 1.971997
C -6.309831 2.283386 2.523272
C -5.602325 -0.045158 1.926265
C -6.538472 -0.443964 0.756964
O 0.430822 -3.901996 -1.072360
C 5.623809 -3.772027 3.417478
H -3.091002 2.481186 5.841502
H -0.999743 1.764073 6.979083
H 0.008278 -0.356605 3.338601
H -3.541699 1.692542 3.518069
H 1.078615 1.187284 7.777937
H 3.240892 0.079105 8.413347
H 4.291468 -2.587735 5.261437
H 4.745384 -4.615070 1.002338
H 2.562946 -4.341119 -0.097140
H 1.142742 -2.288443 3.387925
H -0.260026 -2.612329 1.696731
H -0.680760 -0.852433 -1.331674
H -2.895940 0.139631 -1.833863
H -4.811937 -3.318720 -0.106135
H -2.587783 -4.291348 0.388196
H -5.303626 -0.494747 -2.434619
H -6.094348 -1.818179 -1.568000
H -5.110444 1.698449 -1.583891
H -6.861701 2.254326 -0.446200
H -4.466510 3.032130 0.640566
H -3.425636 1.055675 0.510088
H -7.207031 2.279313 1.894453
H -5.932002 3.310009 2.593406
H -6.585173 1.957689 3.533271
H -6.082892 -0.388432 3.009339
H -4.265994 -0.795523 1.756541
H -7.840721 0.168823 1.003108
H -6.723404 -1.680947 0.763353
H 5.607100 -4.332032 4.363350
H 6.099932 -2.808864 3.621276
H 6.296447 -4.317774 2.750719
