68

C -0.610290 4.350891 -1.091166
C 0.635574 4.260087 -0.456617
C 1.288102 3.015275 -0.365283
C 0.608094 1.917474 -0.948528
N -0.578935 1.983951 -1.566239
C -1.170670 3.187265 -1.629190
C 2.645328 2.822928 0.263936
C 3.495997 3.855900 0.691098
C 4.748948 3.455076 1.170610
N 5.152752 2.188895 1.250802
C 4.262291 1.261361 0.844619
N 3.047849 1.543594 0.370486
N 4.683864 -0.053096 0.943173
C 4.090499 -1.311195 0.561782
C 4.910952 -2.475246 0.459433
C 4.288700 -3.667004 0.050740
C 2.924638 -3.777152 -0.243866
C 2.122949 -2.637946 -0.113952
C 2.721042 -1.434290 0.292396
N 0.704215 -2.565538 -0.330989
C -0.196212 -3.430419 -0.932520
C -1.570047 -2.794062 -1.066939
C -1.807179 -1.485719 -1.514485
C -3.105121 -0.970436 -1.531779
C -4.244678 -1.743651 -1.223027
C -3.967558 -3.058653 -0.766817
C -2.674435 -3.585512 -0.720458
C -5.594390 -0.990245 -1.010689
N -5.646058 -0.042804 0.125976
C -5.469334 1.404465 -0.149119
C -4.057078 2.015959 0.056811
N -3.469664 1.720478 1.388092
C -3.919251 2.562245 2.504401
C -3.520428 0.251240 1.604179
C -4.934016 -0.355758 1.393068
O 0.197974 -4.584390 -0.985512
C 6.404076 -2.470606 0.741621
H -1.132450 5.299683 -1.171041
H 1.070841 5.162601 -0.034479
H 1.061146 0.930997 -0.950361
H -2.130401 3.207614 -2.143397
H 3.257052 4.910776 0.634129
H 5.492506 4.176743 1.507535
H 5.634668 -0.073763 1.279892
H 4.890756 -4.569523 -0.047722
H 2.483971 -4.718222 -0.544760
H 2.102869 -0.561662 0.423514
H 0.291803 -1.666801 -0.125090
H -0.972751 -0.853776 -1.811124
H -3.226856 0.061686 -1.851143
H -4.776538 -3.698623 -0.411759
H -2.501934 -4.604679 -0.381723
H -6.178838 -0.635844 -1.863914
H -5.884498 -1.990936 -0.665233
H -5.944715 1.713194 -1.538407
H -6.436426 2.147590 0.822909
H -4.099559 3.189777 -0.099300
H -3.457301 1.682771 -0.599988
H -4.988720 2.418308 2.688007
H -3.734902 3.619748 2.280450
H -3.365217 2.313042 3.416997
H -3.133330 0.004062 2.681847
H -2.772361 -0.226696 0.883971
H -5.837453 0.192214 2.539969
H -4.872084 -1.768970 1.576121
H 6.637148 -2.199892 1.781510
H 6.924898 -1.756547 0.097553
H 6.869006 -3.444134 0.566082
