68

C 3.429836 4.739130 -4.619660
C 4.185057 4.496473 -3.464581
C 3.934508 3.349412 -2.684122
C 2.911325 2.493697 -3.161138
N 2.181232 2.707918 -4.262821
C 2.439887 3.815964 -4.972685
C 4.687726 3.026243 -1.417126
C 5.747804 3.785830 -0.894543
C 6.305952 3.313325 0.297140
N 5.889561 2.228147 0.941266
C 4.857836 1.566859 0.374960
N 4.259440 1.926111 -0.764468
N 4.438820 0.446638 1.072415
C 3.454581 -0.577009 0.832356
C 3.489739 -1.764914 1.625359
C 2.492164 -2.724031 1.389322
C 1.466524 -2.567822 0.451179
C 1.416763 -1.377330 -0.283098
C 2.402297 -0.397758 -0.075281
N 0.429672 -1.067851 -1.265080
C -0.521213 -1.878021 -1.827558
C -1.964961 -1.571969 -1.489419
C -2.453935 -0.268177 -1.309649
C -3.801620 -0.053812 -1.011606
C -4.713157 -1.122128 -0.914459
C -4.196070 -2.425954 -1.042346
C -2.853807 -2.651068 -1.356222
C -6.151144 -0.881585 -0.458632
N -6.496468 -0.734369 0.964220
C -6.193800 0.543258 1.645554
C -4.840202 0.562478 2.400117
N -4.667349 -0.552973 3.359368
C -5.297761 -0.391923 4.675205
C -4.924749 -1.834621 2.658092
C -6.262345 -1.879262 1.873247
O -0.232312 -2.817203 -2.547495
C 4.550911 -2.042927 2.676889
H 3.602408 5.620232 -5.230730
H 4.947632 5.221354 -3.191036
H 2.681126 1.575414 -2.631674
H 1.830392 3.963916 -5.862697
H 6.144034 4.679771 -1.360179
H 7.137707 3.841910 0.762225
H 5.023118 0.319959 1.885135
H 2.501165 -3.651665 1.960237
H 0.730456 -3.348267 0.298206
H 2.366922 0.527525 -0.629803
H 0.485694 -0.152594 -1.689227
H -1.775603 0.575548 -1.400489
H -4.146141 0.968656 -0.855780
H -4.851250 -3.286675 -0.910508
H -2.471829 -3.660325 -1.489770
H -6.603889 -0.019117 -0.967751
H -6.760566 -1.704201 -0.861103
H -6.299836 1.373068 0.968422
H -7.292449 0.733643 2.758151
H -4.769355 1.839694 3.145296
H -3.926750 0.532520 1.634224
H -6.389948 -0.365961 4.588212
H -4.958100 0.537448 5.146536
H -5.016613 -1.223015 5.332405
H -4.843569 -2.672263 3.377074
H -3.810226 -2.002421 1.635528
H -7.390506 -1.832413 2.970580
H -6.387450 -2.839036 1.328420
H 4.477897 -1.335550 3.514982
H 5.564153 -1.957833 2.259378
H 4.476051 -3.051014 3.107405
