68

C -0.890314 4.808304 0.234919
C -2.232624 4.408325 0.292733
C -2.560619 3.038057 0.268309
C -1.461336 2.145643 0.208603
N -0.172398 2.505234 0.156971
C 0.097894 3.819489 0.165208
C -3.975816 2.515255 0.322338
C -5.132169 3.295345 0.481863
C -6.337736 2.586912 0.541871
N -6.440018 1.264224 0.444517
C -5.280698 0.596212 0.268077
N -4.079307 1.177339 0.204651
N -5.396008 -0.781118 0.147178
C -4.429438 -1.848134 0.049952
C -4.830267 -3.189896 0.328147
C -3.842504 -4.185875 0.239088
C -2.509130 -3.936034 -0.107329
C -2.137647 -2.620123 -0.401300
C -3.101051 -1.602448 -0.317539
N -0.829296 -2.176882 -0.777475
C 0.380923 -2.828667 -0.800355
C 1.628354 -2.009127 -1.078280
C 1.750984 -0.641918 -0.776297
C 2.927261 0.047643 -1.076274
C 4.036154 -0.599496 -1.652408
C 3.897393 -1.968316 -1.954939
C 2.725063 -2.667737 -1.659210
C 5.325467 0.154562 -1.987700
N 6.170907 0.706574 -0.913648
C 6.911229 -0.251240 -0.062045
C 6.241445 -0.617843 1.286228
N 5.848872 0.562173 2.094851
C 6.906538 1.179586 2.903988
C 5.034888 1.468974 1.251308
C 5.703553 1.849981 -0.096951
O 0.471110 -4.034560 -0.626907
C -6.242518 -3.573437 0.735261
H -0.615426 5.858882 0.245034
H -2.997655 5.179073 0.342221
H -1.634526 1.075415 0.230541
H 1.152281 4.088347 0.121219
H -5.128398 4.373649 0.583717
H -7.279553 3.117398 0.680395
H -6.362256 -1.049856 0.258539
H -4.108982 -5.219176 0.458444
H -1.776716 -4.732532 -0.156789
H -2.823843 -0.586140 -0.545343
H -0.784166 -1.200339 -1.031082
H 0.923174 -0.109212 -0.313496
H 2.962033 1.115600 -0.865495
H 4.722599 -2.513243 -2.412971
H 2.636876 -3.728304 -1.882032
H 5.972704 -0.513791 -2.573737
H 5.061252 1.001833 -2.637467
H 7.148276 -1.515577 -0.807653
H 8.257966 0.362705 0.263658
H 6.802593 -1.259790 1.852351
H 4.895381 -1.371804 0.905745
H 7.689245 1.608867 2.268454
H 7.360785 0.431496 3.563893
H 6.487160 1.971894 3.534094
H 4.822407 2.760466 2.009825
H 4.096754 1.026049 1.121351
H 7.020694 2.660005 0.324626
H 5.131779 2.505080 -0.668536
H -6.958187 -3.383447 -0.076990
H -6.578453 -3.002513 1.612334
H -6.338982 -4.635552 0.999419
