68

C 0.294423 4.596155 -1.001594
C 1.622187 4.479502 -0.566751
C 2.200831 3.204521 -0.407987
C 1.366814 2.107079 -0.737174
N 0.099207 2.195788 -1.158714
C -0.422011 3.426241 -1.280147
C 3.616825 2.979642 0.063473
C 4.566212 3.980382 0.323561
C 5.828560 3.527975 0.725455
N 6.156155 2.248105 0.883267
C 5.174718 1.356069 0.633790
N 3.942664 1.684687 0.236626
N 5.509310 0.022547 0.817250
C 4.809435 -1.210162 0.547324
C 5.547270 -2.423187 0.399111
C 4.814196 -3.588939 0.117941
C 3.421600 -3.621956 -0.023656
C 2.710695 -2.428977 0.143502
C 3.414495 -1.248526 0.430939
N 1.291899 -2.268837 0.027408
C 0.308209 -3.137892 -0.382999
C -1.091181 -2.586527 -0.590106
C -1.357464 -1.254640 -0.952501
C -2.672139 -0.812159 -1.111227
C -3.768914 -1.674351 -0.920770
C -3.487325 -3.013750 -0.588453
C -2.174957 -3.466663 -0.430182
C -5.204138 -1.171921 -1.106831
N -5.576498 0.164112 -0.600424
C -5.159349 0.549005 0.768034
C -6.207288 0.166280 1.843624
N -7.581362 0.655922 1.583518
C -7.862893 2.036785 1.992255
C -7.971561 0.290359 0.201548
C -6.937847 0.665165 -0.890823
O 0.528058 -4.326188 -0.562621
C 7.060673 -2.499464 0.502482
H -0.174802 5.568196 -1.121496
H 2.173356 5.389913 -0.343855
H 1.758530 1.097201 -0.680989
H -1.454562 3.473172 -1.622726
H 4.378215 5.040569 0.206291
H 6.626318 4.241049 0.931959
H 6.483394 -0.050583 1.070373
H 5.345169 -4.530727 -0.015666
H 2.896591 -4.540621 -0.255593
H 2.875072 -0.324701 0.565759
H 0.965498 -1.335696 0.234443
H -0.536497 -0.559925 -1.116671
H -2.837305 0.227181 -1.394469
H -4.301421 -3.725115 -0.451504
H -1.969040 -4.502858 -0.173381
H -5.431017 -1.130144 -2.182823
H -5.860462 -1.940414 -0.672867
H -4.234434 0.190352 0.981846
H -5.048822 2.087217 0.806608
H -5.768898 0.660559 3.107522
H -6.260733 -1.347720 1.898716
H -7.267081 2.748564 1.409297
H -7.633386 2.170939 3.055549
H -8.925161 2.264788 1.847883
H -9.163818 0.859817 -0.090013
H -8.131514 -1.225426 0.160776
H -6.873166 2.215812 -0.904978
H -7.254601 0.358854 -1.876726
H 7.405967 -2.257154 1.517384
H 7.547278 -1.797422 -0.189154
H 7.456137 -3.496392 0.264104
