68

C 1.197750 4.845451 -0.937688
C 2.492119 4.527436 -0.504474
C 2.889828 3.179502 -0.412540
C 1.924390 2.222226 -0.810645
N 0.683377 2.505336 -1.227892
C 0.332996 3.799999 -1.281401
C 4.248560 2.732904 0.065575
C 5.332558 3.579412 0.349363
C 6.512472 2.943713 0.755475
N 6.647738 1.625952 0.891737
C 5.551210 0.891177 0.616370
N 4.386294 1.403691 0.217409
N 5.690827 -0.476521 0.769242
C 4.827938 -1.590028 0.460521
C 5.390009 -2.890061 0.281129
C 4.505321 -3.935123 -0.034078
C 3.123636 -3.771422 -0.187141
C 2.581522 -2.494199 -0.007485
C 3.440459 -1.438142 0.336815
N 1.195388 -2.136342 -0.119523
C 0.105189 -2.800413 -0.652061
C -1.176772 -1.985873 -0.695214
C -1.237276 -0.607421 -0.962142
C -2.462540 0.063390 -0.954599
C -3.671348 -0.598340 -0.660258
C -3.600712 -1.995979 -0.481484
C -2.380123 -2.675989 -0.475219
C -4.987863 0.174703 -0.850540
N -5.866997 -0.303591 0.235853
C -7.200663 -0.809703 -0.147273
C -8.294232 0.288310 -0.233102
N -8.420406 1.122913 0.991533
C -9.229469 0.548672 2.075304
C -7.076319 1.624678 1.382063
C -5.979872 0.527174 1.453969
O 0.251178 -4.005513 -0.789733
C 6.877547 -3.178093 0.395126
H 0.866130 5.877230 -1.007636
H 3.161717 5.338006 -0.227445
H 2.170733 1.164972 -0.812907
H -0.682115 3.995182 -1.623977
H 5.310625 4.658002 0.254488
H 7.416421 3.506244 0.988195
H 6.643239 -0.688009 1.026358
H 4.904002 -4.938009 -0.181600
H 2.478633 -4.602571 -0.439570
H 3.024136 -0.461224 0.519843
H 0.976546 -1.180568 0.121134
H -0.327505 -0.057910 -1.194350
H -2.467240 1.126378 -1.196885
H -4.516342 -2.572109 -0.357186
H -2.345818 -3.750794 -0.311034
H -5.162715 1.253260 -0.863196
H -5.118963 -0.233456 -1.864336
H -7.104093 -1.534446 -1.458340
H -7.612510 -1.824270 0.874475
H -9.308906 -0.164997 -0.492234
H -7.932096 1.200930 -1.336067
H -8.761353 -0.361547 2.464307
H -10.234558 0.304344 1.711901
H -9.339221 1.270216 2.893458
H -7.149203 2.187715 2.362048
H -6.686346 2.604113 0.358455
H -6.294608 -0.390606 2.596160
H -4.671771 1.134308 1.747011
H 7.277512 -2.955594 1.394591
H 7.449074 -2.581754 -0.321634
H 7.120457 -4.224550 0.193382
