68

C -0.160852 4.502075 -1.239637
C 1.173614 4.393420 -0.824057
C 1.759728 3.122193 -0.662293
C 0.925566 2.019005 -0.971930
N -0.348553 2.100096 -1.376585
C -0.876923 3.327402 -1.497039
C 3.180703 2.909795 -0.198483
C 4.122458 3.920586 0.051525
C 5.387191 3.482847 0.461425
N 5.723680 2.207715 0.636284
C 4.749789 1.304896 0.396292
N 3.517195 1.618867 -0.013267
N 5.099701 -0.023514 0.596086
C 4.398052 -1.268561 0.394286
C 5.120372 -2.500174 0.408695
C 4.379676 -3.680974 0.224788
C 2.989444 -3.714851 0.060752
C 2.290834 -2.504780 0.110704
C 3.002549 -1.309364 0.295095
N 0.878687 -2.336810 -0.028002
C -0.111651 -3.210900 -0.410077
C -1.471112 -2.608968 -0.710986
C -1.619878 -1.357685 -1.333056
C -2.889808 -0.828187 -1.562366
C -4.054972 -1.539927 -1.223839
C -3.891076 -2.784680 -0.585185
C -2.623915 -3.329192 -0.359869
C -5.421172 -0.868631 -1.338675
N -5.906231 0.046840 -0.293147
C -5.360740 1.421406 -0.233047
C -4.174223 1.600301 0.749404
N -4.446236 1.117911 2.124040
C -5.181120 2.030850 3.007675
C -4.945544 -0.277161 2.055682
C -6.124471 -0.487760 1.069537
O 0.064241 -4.417907 -0.461227
C 6.627412 -2.582376 0.580643
H -0.635410 5.471590 -1.358945
H 1.723814 5.307596 -0.615478
H 1.321503 1.011100 -0.910903
H -1.915474 3.368226 -1.821904
H 3.926551 4.978261 -0.075059
H 6.178644 4.204478 0.662150
H 6.067081 -0.087120 0.875997
H 4.900768 -4.637333 0.205509
H 2.454728 -4.645451 -0.085427
H 2.467005 -0.375608 0.353084
H 0.556433 -1.385974 0.087115
H -0.740472 -0.783244 -1.614446
H -2.962910 0.164495 -2.006422
H -4.764971 -3.341197 -0.247295
H -2.505834 -4.295000 0.124711
H -5.541559 -0.332449 -2.290032
H -6.169093 -1.666387 -1.456109
H -5.144111 1.784856 -1.205321
H -6.514109 2.339473 0.339159
H -3.859780 3.030752 0.809947
H -3.184409 1.019557 0.340451
H -6.200867 2.196902 2.642436
H -4.664801 2.995654 3.068764
H -5.233624 1.614399 4.020352
H -5.210202 -0.635744 3.099325
H -3.802053 -1.121235 1.566599
H -7.330067 0.307918 1.686633
H -6.435302 -1.552108 1.022336
H 6.936949 -2.224371 1.572824
H 7.152883 -1.973901 -0.169021
H 7.015183 -3.605618 0.480261
