68

C -7.973244 -3.603654 -1.331869
C -6.788528 -3.279063 -0.658878
C -6.426015 -1.929012 -0.479371
C -7.321883 -0.971864 -1.016238
N -8.459073 -1.265047 -1.661323
C -8.771730 -2.560575 -1.811856
C -5.171656 -1.488016 0.232398
C -4.215655 -2.359487 0.784214
C -3.114366 -1.755070 1.400673
N -2.934801 -0.439940 1.485297
C -3.909243 0.316567 0.943616
N -4.994260 -0.155674 0.330720
N -3.742950 1.674322 1.047218
C -2.627158 2.550584 0.813276
C -2.807400 3.958501 0.974143
C -1.700163 4.783065 0.721458
C -0.444958 4.303957 0.333596
C -0.271030 2.921649 0.200139
C -1.365606 2.070571 0.433673
N 0.954990 2.281515 -0.179934
C 2.225234 2.785225 -0.350224
C 3.312061 1.821807 -0.788341
C 3.086837 0.711332 -1.618827
C 4.136927 -0.149342 -1.948988
C 5.448334 0.079660 -1.490982
C 5.668027 1.224333 -0.700618
C 4.624575 2.089479 -0.364643
C 6.588543 -0.889265 -1.811418
N 6.829990 -2.042476 -0.927612
C 5.877152 -3.175840 -0.941629
C 4.764385 -3.098719 0.135683
N 5.271013 -2.896641 1.514382
C 5.742419 -4.091172 2.224774
C 6.180722 -1.725166 1.519313
C 7.305286 -1.792432 0.453079
O 2.501892 3.957050 -0.147413
C -4.124000 4.591543 1.393172
H -8.271483 -4.637072 -1.482292
H -6.169959 -4.090732 -0.284361
H -7.106476 0.088672 -0.920198
H -9.702131 -2.759565 -2.341475
H -4.282572 -3.439855 0.758363
H -2.314322 -2.340266 1.853071
H -4.616720 2.100997 1.315541
H -1.807459 5.862073 0.824325
H 0.384071 4.977746 0.157587
H -1.245511 1.001305 0.334410
H 0.891411 1.274467 -0.226452
H 2.086473 0.524551 -2.001263
H 3.924976 -1.020374 -2.568801
H 6.667833 1.438771 -0.324607
H 4.809941 2.970541 0.244925
H 6.426856 -1.291125 -2.821684
H 7.526247 -0.316111 -1.844637
H 5.416974 -3.312944 -2.016100
H 6.664832 -4.399044 -0.671843
H 4.032191 -4.214988 0.106122
H 3.956833 -2.098313 -0.129041
H 6.631801 -4.509803 1.740576
H 4.957341 -4.855703 2.243388
H 5.990318 -3.840606 3.262662
H 6.702152 -1.595749 2.715786
H 5.383448 -0.587242 1.286834
H 8.192567 -2.918472 0.814959
H 7.971645 -0.824344 0.488109
H -4.492370 4.210227 2.356294
H -4.903487 4.402709 0.649743
H -4.053358 5.676897 1.503134
