68

C 2.132447 4.587105 -4.005367
C 2.787051 4.430393 -2.776472
C 3.229080 3.154936 -2.370343
C 2.970461 2.093136 -3.272727
N 2.345217 2.226792 -4.449980
C 1.937179 3.454394 -4.802624
C 3.928834 2.895864 -1.060331
C 4.212831 3.866668 -0.084245
C 4.847572 3.402989 1.073821
N 5.179457 2.133634 1.289121
C 4.864346 1.277977 0.297416
N 4.261338 1.608440 -0.844401
N 5.206413 -0.028989 0.522611
C 4.460737 -1.243773 0.376856
C 5.155912 -2.489399 0.335479
C 4.379085 -3.650748 0.199320
C 2.984102 -3.644898 0.094827
C 2.317874 -2.414739 0.132737
C 3.063247 -1.230456 0.271473
N 0.902948 -2.237112 0.009738
C -0.093836 -3.129547 -0.311056
C -1.465550 -2.565395 -0.622491
C -1.655765 -1.343713 -1.288630
C -2.944207 -0.859949 -1.523307
C -4.083405 -1.577185 -1.112071
C -3.877916 -2.808755 -0.460602
C -2.592805 -3.306220 -0.231953
C -5.488691 -1.007295 -1.312457
N -6.016829 -0.051985 -0.321005
C -5.501544 1.335518 -0.319235
C -4.327458 1.583768 0.662673
N -4.610088 1.173377 2.057923
C -5.368505 2.120508 2.883622
C -5.085859 -0.231650 2.058365
C -6.244021 -0.518684 1.066675
O 0.085163 -4.336675 -0.330515
C 6.667520 -2.606811 0.428583
H 1.783005 5.560264 -4.337660
H 2.936606 5.313353 -2.159616
H 3.287727 1.084166 -3.022985
H 1.433071 3.529359 -5.764788
H 3.965657 4.916499 -0.182725
H 5.100060 4.093943 1.877528
H 6.187738 -0.092665 0.750413
H 4.873527 -4.620583 0.162004
H 2.426067 -4.565641 -0.024425
H 2.565293 -0.270086 0.283451
H 0.595985 -1.279648 0.107351
H -0.791256 -0.776915 -1.625282
H -3.058419 0.097924 -2.031062
H -4.731646 -3.392104 -0.115873
H -2.441679 -4.257946 0.271282
H -5.526791 -0.511035 -2.293129
H -6.201764 -1.843559 -1.355026
H -5.281098 1.662674 -1.317562
H -6.677891 2.252721 0.199923
H -4.052817 3.058270 0.649194
H -3.389080 1.056360 0.327818
H -6.389108 2.244700 2.504433
H -4.872266 3.097489 2.890896
H -5.418058 1.762568 3.918348
H -5.376300 -0.542111 3.142941
H -3.929506 -1.077040 1.645205
H -7.480992 0.298851 1.629253
H -6.536452 -1.573598 1.073345
H 7.037182 -2.251105 1.400553
H 7.165954 -2.015346 -0.352491
H 7.024713 -3.639482 0.314159
