68

C -0.136170 4.758607 -1.057894
C -1.474026 4.521169 -0.714895
C -1.963758 3.201124 -0.660896
C -1.033462 2.187016 -0.995449
N 0.245505 2.393160 -1.334927
C 0.680962 3.662248 -1.355303
C -3.382781 2.848237 -0.286513
C -4.424195 3.776152 -0.118823
C -5.676624 3.238788 0.199131
N -5.915316 1.939968 0.364069
C -4.855579 1.120598 0.207188
N -3.627872 1.534606 -0.116202
N -5.126871 -0.225513 0.401209
C -4.331496 -1.429825 0.357894
C -4.937273 -2.688407 0.657770
C -4.120160 -3.830632 0.596654
C -2.758225 -3.803701 0.273502
C -2.173190 -2.566051 -0.011309
C -2.971251 -1.411964 0.029516
N -0.799240 -2.340181 -0.342415
C 0.274291 -3.190758 -0.475514
C 1.613765 -2.560095 -0.818057
C 2.776708 -3.256214 -0.447466
C 4.036555 -2.682683 -0.637743
C 4.185011 -1.417835 -1.239306
C 3.018547 -0.777826 -1.696634
C 1.754995 -1.337036 -1.497350
C 5.550558 -0.737615 -1.350359
N 5.972838 0.193508 -0.288924
C 6.225977 -0.341152 1.068742
C 5.014284 -0.252914 2.033409
N 4.417353 1.101352 2.136064
C 5.073891 2.041435 3.052153
C 4.121291 1.599715 0.770471
C 5.330243 1.525255 -0.198880
O 0.180727 -4.398713 -0.319578
C -6.402203 -2.839571 1.032210
H 0.264128 5.767440 -1.092594
H -2.105431 5.372114 -0.471151
H -1.339203 1.147600 -1.016965
H 1.726402 3.794065 -1.630223
H -4.320291 4.846489 -0.246534
H -6.555121 3.869586 0.332524
H -6.102306 -0.334308 0.633815
H -4.555058 -4.804426 0.818004
H -2.159584 -4.705639 0.248899
H -2.520754 -0.459664 -0.183811
H -0.555124 -1.361177 -0.380189
H 2.674922 -4.225973 0.033272
H 4.915810 -3.218324 -0.280735
H 3.085108 0.197267 -2.179175
H 0.875123 -0.803975 -1.849000
H 6.321221 -1.518827 -1.412333
H 5.586373 -0.180515 -2.297245
H 6.631276 -1.456577 1.004592
H 7.322901 0.470694 1.658398
H 5.345883 -0.649438 3.193918
H 3.989852 -1.116441 1.574567
H 6.083211 2.288850 2.704525
H 5.142286 1.606014 4.055771
H 4.489652 2.965884 3.128375
H 3.699811 2.814659 0.853226
H 3.158951 0.910024 0.321232
H 6.366583 2.469828 0.314264
H 5.032759 1.913704 -1.277540
H -7.081064 -2.470640 0.250154
H -6.632217 -2.285708 1.946846
H -6.685054 -3.879035 1.217692
