68

C -7.972410 -3.560125 -1.359495
C -6.784503 -3.251373 -0.683610
C -6.433018 -1.905811 -0.453914
C -7.342615 -0.936241 -0.944684
N -8.481503 -1.214919 -1.592678
C -8.783577 -2.505831 -1.792053
C -5.174317 -1.485187 0.262164
C -4.201105 -2.359104 0.776305
C -3.099103 -1.752570 1.388871
N -2.934966 -0.438014 1.505980
C -3.935340 0.318844 1.011320
N -5.016376 -0.153629 0.389694
N -3.759744 1.678446 1.092733
C -2.648647 2.552003 0.821111
C -2.836449 3.961767 0.953846
C -1.734111 4.783908 0.672722
C -0.480601 4.298688 0.287124
C -0.305984 2.914637 0.176198
C -1.391262 2.060424 0.441923
N 0.913709 2.264698 -0.208085
C 2.184152 2.767041 -0.376256
C 3.287148 1.810571 -0.785563
C 3.080388 0.695929 -1.614626
C 4.146241 -0.140879 -1.954036
C 5.459707 0.131844 -1.527737
C 5.648395 1.240835 -0.681114
C 4.590035 2.084507 -0.337307
C 6.596405 -0.851093 -1.799861
N 6.851898 -2.002472 -0.920654
C 5.927098 -3.156467 -0.964535
C 4.810744 -3.124982 0.110882
N 5.294850 -2.931036 1.497029
C 5.781794 -4.124656 2.197618
C 6.180858 -1.743935 1.525855
C 7.311280 -1.751162 0.464039
O 2.454431 3.937084 -0.157066
C -4.150516 4.602541 1.368137
H -8.263670 -4.589346 -1.546868
H -6.156849 -4.073786 -0.349467
H -7.131055 0.120047 -0.805352
H -9.715313 -2.698780 -2.321327
H -4.260305 -3.438435 0.711219
H -2.294910 -2.361692 1.800991
H -4.634244 2.115104 1.343655
H -1.840024 5.864782 0.757804
H 0.343077 4.972592 0.086436
H -1.264537 0.988737 0.372357
H 0.856573 1.256894 -0.243033
H 2.081927 0.484126 -1.988670
H 3.948646 -1.017814 -2.570781
H 6.639037 1.459145 -0.282659
H 4.751214 2.953441 0.295849
H 6.527790 -1.250678 -2.821866
H 7.534369 -0.280817 -1.867642
H 5.549445 -3.296974 -1.938174
H 6.785692 -4.438300 -0.629477
H 4.087892 -4.374871 0.041884
H 3.964363 -2.139712 -0.158454
H 6.684320 -4.522065 1.719698
H 5.010585 -4.903309 2.198592
H 6.013136 -3.882026 3.241119
H 6.748398 -1.631678 2.788755
H 5.350003 -0.583786 1.297253
H 8.244386 -2.959933 0.862056
H 7.915122 -0.874633 0.508288
H -4.466253 4.263692 2.364932
H -4.956973 4.356107 0.663040
H -4.098101 5.699045 1.413298
