68

C -0.076768 4.914763 2.352297
C 1.275061 4.558841 2.277592
C 1.653962 3.327179 1.705149
C 0.594719 2.520647 1.222297
N -0.705378 2.844830 1.287341
C -1.024462 4.022334 1.845382
C 3.087188 2.865084 1.606320
C 4.187999 3.626760 2.037812
C 5.443761 3.033237 1.886015
N 5.637332 1.824765 1.369211
C 4.528956 1.161168 0.978188
N 3.285529 1.640005 1.076944
N 4.795080 -0.088069 0.450887
C 4.011894 -1.129781 -0.155643
C 4.687657 -2.137541 -0.913142
C 3.903973 -3.144157 -1.499027
C 2.512352 -3.211994 -1.384360
C 1.871824 -2.245195 -0.603796
C 2.617557 -1.201519 -0.033924
N 0.468349 -2.153888 -0.432039
C -0.294335 -3.033243 0.329808
C -1.795036 -2.886687 0.144868
C -2.437671 -2.744849 -1.093032
C -3.818214 -2.542083 -1.149779
C -4.661382 -2.580711 -0.016032
C -3.960221 -2.663857 1.215609
C -2.585927 -2.897936 1.301620
C -6.048505 -1.877190 -0.161054
N -5.806541 -0.396743 -0.137833
C -5.772354 0.303829 -1.452134
C -4.390756 0.573583 -2.107137
N -3.429429 1.259548 -1.209948
C -3.525387 2.721628 -1.124860
C -3.381886 0.529683 0.083467
C -4.778216 0.264978 0.715614
O 0.351132 -3.579307 1.208356
C 6.194133 -2.163364 -1.117037
H -0.388842 5.856812 2.793200
H 2.008624 5.253017 2.679620
H 0.806984 1.563541 0.756148
H -2.089892 4.246717 1.877582
H 4.122500 4.618144 2.468388
H 6.361503 3.536429 2.188694
H 5.794662 -0.222823 0.438771
H 4.389564 -3.913462 -2.098467
H 1.942392 -3.994583 -1.869665
H 2.108069 -0.438806 0.534889
H -0.215115 -1.690663 -1.009533
H -1.848706 -2.761201 -2.006818
H -4.264641 -2.374179 -2.129691
H -4.506665 -2.538038 2.151266
H -2.099687 -3.010248 2.267920
H -6.865175 -2.028806 -0.868931
H -6.216945 -2.464817 0.753048
H -6.655563 -0.424114 -2.449308
H -6.437450 1.693178 -1.216965
H -4.559354 1.305577 -3.192789
H -3.992032 -0.232769 -2.389917
H -4.476665 3.019063 -0.672038
H -3.449790 3.166932 -2.123820
H -2.701102 3.118910 -0.521841
H -2.561192 1.333732 1.049426
H -2.906822 -0.271666 -0.048679
H -5.357915 1.669500 1.067556
H -4.698546 -0.205635 1.597560
H 6.747331 -2.285026 -0.174576
H 6.545079 -1.236669 -1.580029
H 6.519071 -2.977737 -1.769742
