68

C -0.587020 4.433353 -1.519848
C 0.650040 4.355599 -0.866530
C 1.265210 3.103264 -0.674248
C 0.564267 1.984817 -1.189310
N -0.614593 2.038832 -1.823846
C -1.174248 3.248943 -1.977940
C 2.600402 2.918981 0.002552
C 3.471904 3.955992 0.374813
C 4.692641 3.556118 0.931921
N 5.047354 2.288639 1.132434
C 4.139605 1.359428 0.770251
N 2.954979 1.640331 0.224884
N 4.509868 0.046027 1.000523
C 3.890685 -1.223353 0.706820
C 4.675394 -2.415785 0.743284
C 4.027628 -3.622984 0.430632
C 2.672342 -3.719918 0.094325
C 1.908380 -2.548179 0.072523
C 2.530278 -1.329638 0.389698
N 0.505660 -2.452040 -0.221357
C -0.399767 -3.342368 -0.778123
C -1.734401 -2.664172 -1.040815
C -1.881391 -1.401605 -1.633821
C -3.148915 -0.833450 -1.772439
C -4.349370 -1.524061 -1.491214
C -4.150378 -2.763540 -0.828569
C -2.895804 -3.359666 -0.677624
C -5.621568 -0.640160 -1.296248
N -5.503068 0.038613 0.036723
C -5.023544 1.450028 0.032572
C -3.526652 1.728954 0.340580
N -3.056440 1.105964 1.602585
C -3.362591 1.827567 2.843946
C -3.417126 -0.333555 1.565608
C -4.914516 -0.602814 1.246942
O -0.048535 -4.508306 -0.693612
C 6.157725 -2.428028 1.077142
H -1.082017 5.387636 -1.673741
H 1.105913 5.274029 -0.504575
H 0.990840 0.989491 -1.113464
H -2.131841 3.255064 -2.496612
H 3.270949 5.010106 0.227978
H 5.448553 4.278699 1.238421
H 5.445224 0.025976 1.377918
H 4.601806 -4.548597 0.443422
H 2.210670 -4.671452 -0.133031
H 1.937868 -0.429866 0.411056
H 0.121657 -1.522750 -0.124547
H -1.002964 -0.837653 -1.938546
H -3.200637 0.181821 -2.164568
H -5.009603 -3.292070 -0.413254
H -2.797001 -4.339920 -0.216892
H -6.101426 0.088695 -1.951517
H -6.081806 -1.631524 -1.417614
H -5.376247 2.110574 -1.300743
H -5.861602 2.195438 1.123506
H -3.336282 2.889280 0.388096
H -2.960971 1.391658 -0.383488
H -4.444098 1.875006 3.004757
H -2.963990 2.848008 2.798574
H -2.896568 1.326447 3.699957
H -3.107214 -0.918313 2.876626
H -2.809330 -0.791498 0.896314
H -5.721656 -0.018593 2.466475
H -5.117948 -1.579560 1.255167
H 6.368329 -2.052799 2.088774
H 6.722739 -1.805557 0.377546
H 6.593128 -3.429288 1.024226
