68

C -0.441546 4.518126 0.107659
C 0.910269 4.373864 0.446143
C 1.562769 3.149058 0.208975
C 0.788919 2.146326 -0.424779
N -0.497149 2.270043 -0.769913
C -1.099970 3.436535 -0.489478
C 2.993371 2.871482 0.589134
C 3.924891 3.828740 1.021945
C 5.208080 3.344226 1.304208
N 5.567977 2.065752 1.204497
C 4.602083 1.214474 0.803277
N 3.359028 1.580802 0.495471
N 4.968238 -0.114449 0.720421
C 4.283230 -1.304848 0.278407
C 5.048113 -2.472447 -0.024148
C 4.343989 -3.613696 -0.440977
C 2.953499 -3.662944 -0.587364
C 2.214136 -2.503345 -0.326578
C 2.888319 -1.362749 0.138931
N 0.780599 -2.395119 -0.404160
C -0.207927 -3.360643 -0.356327
C -1.612134 -2.803854 -0.503690
C -2.011416 -1.843459 -1.444478
C -3.361113 -1.493403 -1.561561
C -4.393986 -2.183169 -0.884901
C -3.921484 -2.926634 0.228844
C -2.584654 -3.303091 0.373555
C -5.833698 -1.580329 -0.947589
N -5.876534 -0.370001 -0.067582
C -5.744751 0.950423 -0.744157
C -4.377989 1.681985 -0.714376
N -3.822039 1.839481 0.648178
C -4.379870 2.917133 1.472800
C -3.789151 0.488823 1.261866
C -5.151272 -0.261138 1.231306
O 0.189917 -4.436879 0.058468
C 6.562567 -2.531466 0.088066
H -0.978553 5.439625 0.311150
H 1.419120 5.205208 0.928102
H 1.235288 1.193041 -0.690062
H -2.152160 3.503194 -0.752191
H 3.714889 4.886910 1.118431
H 6.011586 4.003837 1.630859
H 5.946428 -0.203018 0.950306
H 4.898304 -4.524136 -0.665870
H 2.447107 -4.579294 -0.862221
H 2.312705 -0.494907 0.416582
H 0.424987 -1.450414 -0.459104
H -1.267114 -1.386340 -2.091702
H -3.625306 -0.733555 -2.295735
H -4.630511 -3.299894 0.968834
H -2.283073 -3.993392 1.157846
H -6.474238 -1.336060 -1.797195
H -6.047615 -2.592857 -0.575141
H -6.201491 0.841446 -2.191510
H -6.778406 1.896348 -0.032329
H -4.567482 3.027800 -1.316203
H -3.670807 1.185561 -1.287098
H -5.436487 2.731784 1.687366
H -4.287317 3.878984 0.955498
H -3.831738 2.993115 2.419012
H -3.359518 0.623095 2.633506
H -2.920295 -0.158772 0.684588
H -6.111697 0.568275 2.174953
H -5.083887 -1.121019 1.651711
H 6.919677 -2.351606 1.112010
H 7.033629 -1.782048 -0.554073
H 6.970556 -3.499716 -0.212974
