68

C 7.101922 -0.392084 -3.599527
C 6.847673 0.620993 -2.665750
C 5.917099 0.407028 -1.628916
C 5.289486 -0.863838 -1.611212
N 5.522245 -1.841938 -2.496696
C 6.413439 -1.602690 -3.469250
C 5.584267 1.442208 -0.584656
C 6.147220 2.727530 -0.503030
C 5.692857 3.527577 0.551836
N 4.787302 3.145806 1.448040
C 4.305229 1.897060 1.286324
N 4.666776 1.053002 0.320769
N 3.372244 1.488963 2.206503
C 2.675703 0.260145 2.336165
C 3.300227 -0.829329 3.007666
C 2.581572 -2.032453 3.072131
C 1.325216 -2.215981 2.483210
C 0.754350 -1.150020 1.776474
C 1.444374 0.073331 1.698867
N -0.497092 -1.195197 1.078898
C -1.501500 -2.136804 1.094853
C -2.736856 -1.878699 0.253640
C -2.707899 -1.187793 -0.968903
C -3.882962 -0.986577 -1.696530
C -5.114951 -1.511026 -1.262983
C -5.132676 -2.184050 -0.026497
C -3.963004 -2.392330 0.707982
C -6.409359 -1.185807 -2.005069
N -7.168333 0.045927 -1.739117
C -6.637532 1.335639 -2.234025
C -5.810098 2.131308 -1.191708
N -6.489543 2.340649 0.107450
C -7.442365 3.453842 0.179218
C -6.969237 1.030454 0.605166
C -7.806345 0.215069 -0.414202
O -1.448247 -3.131723 1.800049
C 4.683872 -0.726326 3.624967
H 7.814042 -0.249295 -4.406914
H 7.384574 1.560626 -2.770424
H 4.561914 -1.096250 -0.837993
H 6.579439 -2.417731 -4.171824
H 6.889197 3.108796 -1.193685
H 6.081314 4.537311 0.683073
H 3.164853 2.199970 2.893025
H 3.019927 -2.887046 3.585797
H 0.810810 -3.167072 2.546300
H 1.047162 0.909763 1.140137
H -0.742380 -0.338359 0.603799
H -1.762613 -0.806701 -1.347232
H -3.832757 -0.418177 -2.625447
H -6.073702 -2.560486 0.373849
H -3.983797 -2.934495 1.650115
H -6.252954 -1.222657 -3.092520
H -7.101614 -2.029513 -1.870132
H -6.124144 1.204705 -3.145386
H -7.887218 2.247974 -2.552268
H -5.488114 3.425403 -1.765172
H -4.655864 1.477027 -0.945475
H -8.301702 3.280521 -0.478154
H -6.954059 4.389130 -0.116949
H -7.803462 3.576069 1.206701
H -7.734911 1.232216 1.758441
H -5.803035 0.253556 0.962435
H -9.116312 1.063780 -0.645322
H -8.118021 -0.718995 -0.025923
H 4.772419 0.149163 4.282945
H 5.457182 -0.632150 2.849289
H 4.947193 -1.603626 4.231594
