68

C -0.788214 4.092103 -2.642631
C 0.491001 4.176319 -2.077396
C 1.126640 3.014519 -1.596466
C 0.402073 1.806764 -1.745868
N -0.821902 1.708070 -2.281583
C -1.400397 2.836757 -2.719303
C 2.494498 3.009991 -0.961749
C 3.349357 4.122346 -0.881678
C 4.586686 3.899482 -0.266838
N 4.972862 2.730255 0.237851
C 4.083680 1.721985 0.132232
N 2.884751 1.830320 -0.443270
N 4.494873 0.518376 0.672642
C 3.941501 -0.808524 0.644310
C 4.812280 -1.935087 0.752916
C 4.220755 -3.208935 0.745376
C 2.844306 -3.428755 0.622355
C 2.008724 -2.319686 0.450661
C 2.563285 -1.031726 0.524996
N 0.586158 -2.362266 0.351210
C -0.230940 -3.385676 -0.082407
C -1.685571 -3.005118 -0.241943
C -2.169805 -2.607212 -1.494064
C -3.494161 -2.185837 -1.628193
C -4.444352 -2.270421 -0.577197
C -3.891946 -2.624460 0.675560
C -2.573493 -3.056194 0.838861
C -5.767667 -1.442857 -0.550724
N -5.403380 -0.046221 -0.144373
C -4.144932 0.645130 -0.548379
C -2.946653 0.614959 0.442158
N -3.290933 1.061043 1.816797
C -3.329054 2.511493 2.043030
C -4.474795 0.290201 2.269740
C -5.664159 0.331667 1.272200
O 0.177974 -4.499318 -0.362768
C 6.321399 -1.813312 0.882636
H -1.299852 4.976021 -3.012011
H 0.962714 5.153463 -2.008080
H 0.838765 0.864922 -1.426920
H -2.394745 2.717226 -3.146713
H 3.117947 5.105330 -1.273203
H 5.328037 4.691313 -0.163319
H 5.445468 0.609048 0.998612
H 4.855133 -4.088344 0.848665
H 2.426180 -4.427860 0.628166
H 1.913204 -0.170276 0.489731
H 0.065606 -1.499580 0.270771
H -1.483818 -2.562284 -2.336167
H -3.790622 -1.763813 -2.589166
H -4.530949 -2.601895 1.557728
H -2.205016 -3.371632 1.811641
H -5.754700 -1.776321 -1.598223
H -6.742434 -1.641050 -0.102393
H -3.855275 0.346676 -1.484440
H -4.529418 2.165468 -0.713755
H -2.015605 1.352557 -0.002478
H -2.557357 -0.308251 0.506500
H -4.130002 2.971318 1.455841
H -2.372724 2.965633 1.758037
H -3.497046 2.726558 3.104760
H -4.887002 0.782197 3.479329
H -4.185505 -0.636094 2.429287
H -6.183036 1.789179 1.240869
H -6.797671 -0.509804 1.833090
H 6.627061 -1.331618 1.822517
H 6.741883 -1.221041 0.065094
H 6.826014 -2.782556 0.854080
