68

C -1.352299 5.037536 -0.565993
C -2.660954 4.538045 -0.518924
C -2.881526 3.175515 -0.239481
C -1.722692 2.401351 0.014948
N -0.464578 2.859776 -0.021468
C -0.292424 4.158377 -0.314900
C -4.246130 2.535479 -0.192075
C -5.471596 3.219211 -0.243280
C -6.618342 2.420593 -0.149606
N -6.603982 1.093868 -0.034180
C -5.384707 0.518595 -0.015235
N -4.237291 1.194627 -0.088723
N -5.372362 -0.861566 0.088717
C -4.310872 -1.827521 0.237908
C -4.609889 -3.141285 0.709944
C -3.533039 -4.031943 0.859184
C -2.201195 -3.705504 0.576565
C -1.920163 -2.421434 0.097964
C -2.981193 -1.519008 -0.076886
N -0.627054 -1.908452 -0.258429
C 0.656180 -2.371964 -0.035395
C 1.748788 -1.425884 -0.503981
C 1.685654 -0.025758 -0.430279
C 2.718334 0.756887 -0.951883
C 3.819704 0.207590 -1.654783
C 3.934135 -1.195928 -1.538906
C 2.911933 -2.002945 -1.033810
C 5.124589 1.000910 -1.958936
N 5.962576 1.072022 -0.728177
C 7.015852 0.035749 -0.551852
C 6.706247 -1.177238 0.367336
N 6.224560 -0.789202 1.714734
C 7.247743 -0.393149 2.689919
C 5.081713 0.140840 1.538717
C 5.384510 1.352830 0.614440
O 0.734931 -3.550953 0.272358
C -6.014061 -3.598538 1.067733
H -1.156994 6.081311 -0.793960
H -3.485135 5.216319 -0.725961
H -1.812808 1.354591 0.288217
H 0.741890 4.498235 -0.338732
H -5.571677 4.294828 -0.322000
H -7.619358 2.850906 -0.162430
H -6.319294 -1.198336 0.175648
H -3.728846 -5.039927 1.222799
H -1.399932 -4.419842 0.712389
H -2.774088 -0.541310 -0.478199
H -0.637671 -0.982762 -0.661337
H 0.836268 0.456015 0.049197
H 2.640464 1.836656 -0.819465
H 4.830259 -1.686933 -1.916614
H 3.005231 -3.086359 -1.038466
H 5.807473 0.845365 -2.797648
H 4.391804 1.782832 -2.207267
H 7.460515 -0.472227 -1.895095
H 8.244845 0.771212 0.064277
H 7.769216 -1.906802 0.493825
H 6.017508 -1.759296 -0.038358
H 7.760188 0.516833 2.362557
H 7.986285 -1.194184 2.810684
H 6.790245 -0.212140 3.669450
H 4.691511 0.623455 2.821722
H 4.160112 -0.495722 1.118373
H 6.463245 2.206519 1.368194
H 4.577554 1.962939 0.532462
H -6.698822 -3.574363 0.207780
H -6.449188 -2.964062 1.844998
H -6.038961 -4.621756 1.451746
