68

C -0.412930 4.256911 1.030702
C 0.983507 4.158366 1.108439
C 1.623334 2.954256 0.753898
C 0.767420 1.919930 0.301556
N -0.565400 1.992573 0.216279
C -1.142329 3.146602 0.588242
C 3.112864 2.731299 0.860898
C 4.059178 3.689780 1.257208
C 5.385368 3.245266 1.314999
N 5.779110 2.004019 1.041305
C 4.801579 1.146495 0.680579
N 3.512147 1.476877 0.574042
N 5.207509 -0.154449 0.412966
C 4.505647 -1.326605 -0.054106
C 5.242025 -2.457403 -0.522047
C 4.501512 -3.578208 -0.939085
C 3.103103 -3.654263 -0.898697
C 2.404621 -2.557681 -0.386493
C 3.113419 -1.426644 0.040327
N 0.993267 -2.419913 -0.308605
C 0.020553 -3.247066 0.192750
C -1.417074 -2.849538 -0.082136
C -1.831014 -2.259160 -1.287805
C -3.167064 -1.900514 -1.478112
C -4.143437 -2.157776 -0.497974
C -3.704313 -2.705426 0.723186
C -2.374485 -3.086808 0.916968
C -5.571947 -1.649045 -0.674459
N -5.969023 -0.262852 -0.384100
C -5.621953 0.803064 -1.352221
C -4.384322 1.664705 -0.994894
N -4.386624 2.221642 0.376492
C -5.217704 3.412821 0.597390
C -4.603149 1.098598 1.321204
C -5.850579 0.232908 1.005289
O 0.281412 -4.224934 0.871647
C 6.758418 -2.488826 -0.604921
H -0.929715 5.167150 1.319835
H 1.540878 5.017404 1.473911
H 1.186595 0.973241 -0.016742
H -2.228111 3.178625 0.531681
H 3.814663 4.714654 1.508122
H 6.179930 3.930571 1.609163
H 6.208510 -0.232992 0.512486
H 5.030726 -4.450540 -1.321312
H 2.570067 -4.531999 -1.242815
H 2.566043 -0.592744 0.448024
H 0.665289 -1.553361 -0.713697
H -1.101398 -2.077006 -2.072938
H -3.451606 -1.419410 -2.413981
H -4.413658 -2.863583 1.535146
H -2.050556 -3.538033 1.851646
H -5.950329 -1.855454 -1.685800
H -6.217091 -2.302720 -0.068843
H -5.556521 0.400980 -2.358082
H -6.838997 1.819713 -1.351974
H -4.267186 2.661227 -1.871240
H -3.165295 0.795901 -1.110326
H -6.279486 3.188967 0.445464
H -4.923165 4.211172 -0.093603
H -5.078898 3.784610 1.619227
H -4.605201 1.461972 2.315248
H -3.352733 0.135328 1.170924
H -7.076488 1.128169 1.276151
H -5.903629 -0.792388 1.865814
H 7.215528 -2.422477 0.392433
H 7.146265 -1.651857 -1.202515
H 7.143942 -3.408075 -1.067132
