68

C 0.836160 4.743422 -1.400378
C 2.092316 4.511915 -0.824103
C 2.534751 3.191613 -0.613072
C 1.654058 2.168486 -1.042803
N 0.450155 2.368528 -1.595224
C 0.054539 3.640352 -1.762761
C 3.857695 2.839280 0.019147
C 4.870072 3.753335 0.354028
C 6.029089 3.201170 0.913189
N 6.206212 1.902014 1.145393
C 5.176435 1.099202 0.809028
N 4.037093 1.529120 0.264921
N 5.359356 -0.248373 1.061701
C 4.583619 -1.420711 0.741079
C 5.219393 -2.698499 0.703371
C 4.420060 -3.805198 0.371400
C 3.055271 -3.722582 0.071842
C 2.440434 -2.466439 0.112537
C 3.210847 -1.348161 0.469733
N 1.058020 -2.188960 -0.158750
C 0.059020 -2.939956 -0.751321
C -1.246247 -2.194932 -0.973247
C -1.343486 -0.840528 -1.335280
C -2.593053 -0.230675 -1.472340
C -3.792613 -0.928669 -1.220941
C -3.675039 -2.311472 -0.968085
C -2.432015 -2.932515 -0.825981
C -5.176975 -0.299351 -1.458187
N -6.140149 -0.627142 -0.373039
C -7.480685 0.001390 -0.423418
C -7.550318 1.377414 0.291389
N -7.070889 1.363909 1.698002
C -8.051813 0.934750 2.703152
C -5.751456 0.682265 1.758144
C -5.685561 -0.692934 1.039693
O 0.271746 -4.142042 -0.794133
C 6.698476 -2.902483 0.985495
H 0.470580 5.752874 -1.563788
H 2.696458 5.367477 -0.532079
H 1.943027 1.125685 -0.956269
H -0.928152 3.767867 -2.214421
H 4.811283 4.822544 0.191487
H 6.880123 3.819789 1.196853
H 6.288753 -0.396010 1.425358
H 4.876957 -4.793146 0.331186
H 2.477722 -4.599721 -0.188406
H 2.734002 -0.384730 0.544669
H 0.772954 -1.232733 -0.004464
H -0.441102 -0.261213 -1.519661
H -2.617155 0.817154 -1.772238
H -4.573813 -2.919286 -0.870242
H -2.365989 -3.993402 -0.595060
H -4.843777 0.745939 -1.380687
H -5.830825 -0.341992 -2.331865
H -7.932226 0.161510 -1.876028
H -8.451537 -0.932708 0.223663
H -8.670876 1.816821 0.255381
H -6.703456 2.305659 -0.430604
H -8.331374 -0.112473 2.546570
H -8.953132 1.556526 2.645282
H -7.637618 1.046295 3.711932
H -5.385173 0.517966 3.129071
H -4.754089 1.596117 1.132951
H -6.590365 -1.632719 1.759734
H -4.740370 -1.109089 1.115725
H 6.983098 -2.593359 2.001433
H 7.314180 -2.327350 0.288353
H 7.007057 -3.946367 0.884963
