68

C -0.470000 4.573997 -0.267031
C 0.845916 4.411215 0.183881
C 1.479294 3.159779 0.058870
C 0.718601 2.138163 -0.561479
N -0.531174 2.280496 -1.018107
C -1.111798 3.480064 -0.858178
C 2.888505 2.886116 0.515113
C 3.815682 3.862527 0.915204
C 5.093742 3.392165 1.239627
N 5.452351 2.110402 1.206809
C 4.488970 1.240816 0.840261
N 3.248483 1.589891 0.501285
N 4.862178 -0.088217 0.829642
C 4.193734 -1.306087 0.443841
C 4.975729 -2.477903 0.209286
C 4.291428 -3.641576 -0.175141
C 2.903392 -3.714730 -0.329400
C 2.140886 -2.565563 -0.089554
C 2.800510 -1.386501 0.296293
N 0.705239 -2.482940 -0.173386
C -0.224365 -3.344610 -0.724174
C -1.630649 -2.786173 -0.770930
C -2.022617 -1.744655 -1.622076
C -3.367657 -1.364395 -1.686286
C -4.402846 -2.087672 -1.048111
C -3.927892 -2.944567 -0.019718
C -2.596425 -3.354948 0.068875
C -5.826136 -1.444759 -1.012814
N -5.806865 -0.323377 -0.021301
C -5.653923 1.051022 -0.571954
C -4.261330 1.731235 -0.528276
N -3.641477 1.731420 0.816254
C -4.106169 2.755669 1.757813
C -3.647837 0.329858 1.304152
C -5.042430 -0.357253 1.258747
O 0.145375 -4.497443 -0.872958
C 6.489536 -2.515858 0.339195
H -0.988098 5.522637 -0.162866
H 1.344475 5.256997 0.651409
H 1.151099 1.156612 -0.731051
H -2.129937 3.564491 -1.228628
H 3.611072 4.925735 0.946424
H 5.895220 4.066516 1.540351
H 5.838933 -0.157038 1.072233
H 4.859193 -4.551575 -0.365087
H 2.419337 -4.638799 -0.615119
H 2.216882 -0.505937 0.511979
H 0.292591 -1.598250 0.089953
H -1.271379 -1.237919 -2.222898
H -3.629179 -0.536242 -2.343448
H -4.632388 -3.370848 0.695775
H -2.294688 -4.118662 0.781434
H -6.482579 -1.104234 -1.815697
H -6.060264 -2.481747 -0.731263
H -6.171856 1.099974 -2.001415
H -6.620815 1.952097 0.269214
H -4.422911 3.089291 -0.967895
H -3.594101 1.270958 -1.180991
H -5.164440 2.610187 1.994358
H -3.971941 3.755015 1.328036
H -3.523927 2.711029 2.685189
H -3.171944 0.323458 2.677082
H -2.864726 -0.267779 0.674838
H -5.932519 0.425689 2.297407
H -5.001860 -1.259232 1.604199
H 6.834270 -2.280289 1.356162
H 6.960487 -1.796134 -0.336414
H 6.909115 -3.494640 0.092566
