68

C -0.483850 4.440418 -1.588729
C 0.792216 4.352013 -1.016467
C 1.385949 3.090624 -0.815381
C 0.627003 1.974946 -1.247024
N -0.590399 2.038754 -1.803156
C -1.131022 3.257035 -1.961018
C 2.746202 2.891408 -0.194728
C 3.658562 3.915097 0.108949
C 4.879103 3.501379 0.656370
N 5.198489 2.233523 0.907748
C 4.256129 1.317877 0.604482
N 3.070545 1.612521 0.068012
N 4.589632 0.004089 0.885996
C 3.924490 -1.255936 0.660111
C 4.669056 -2.472100 0.734491
C 3.971714 -3.669837 0.501464
C 2.606850 -3.734790 0.196931
C 1.887297 -2.537689 0.118448
C 2.555755 -1.329292 0.372416
N 0.488806 -2.399509 -0.176060
C -0.454658 -3.277064 -0.687681
C -1.761748 -2.557168 -0.979135
C -1.851155 -1.315469 -1.626904
C -3.092785 -0.711001 -1.830581
C -4.318329 -1.331689 -1.496836
C -4.177374 -2.528763 -0.754678
C -2.952595 -3.178300 -0.578202
C -5.539704 -0.364872 -1.481298
N -5.536955 0.137343 -0.051090
C -4.923966 1.492641 0.127989
C -3.455270 1.583884 0.622736
N -3.215638 0.857748 1.891779
C -3.595136 1.552625 3.127550
C -3.728917 -0.523651 1.723722
C -5.191498 -0.608420 1.195050
O -0.148527 -4.450491 -0.548571
C 6.156226 -2.520713 1.041583
H -0.964399 5.401730 -1.744139
H 1.292654 5.269626 -0.716419
H 1.033736 0.971984 -1.163279
H -2.121478 3.270916 -2.413337
H 3.483895 4.968036 -0.075703
H 5.662990 4.212899 0.914447
H 5.530853 -0.031315 1.247324
H 4.513060 -4.613681 0.551880
H 2.107175 -4.678560 0.023525
H 1.995297 -0.409505 0.359186
H 0.143587 -1.451799 -0.123477
H -0.947354 -0.802744 -1.947213
H -3.095094 0.286540 -2.270908
H -5.070615 -3.013537 -0.360461
H -2.899084 -4.140269 -0.073816
H -5.868533 0.545236 -1.982236
H -5.991429 -1.241353 -1.967797
H -5.030289 2.304008 -1.183597
H -5.808911 2.241979 1.160874
H -3.122290 2.914928 0.807142
H -2.778401 1.198521 -0.109446
H -4.677213 1.710602 3.164298
H -3.091109 2.524164 3.186909
H -3.290346 0.966498 4.001786
H -3.677923 -1.199547 3.054989
H -3.081055 -1.023551 1.120637
H -6.088562 0.031252 2.334309
H -5.488101 -1.479413 1.138907
H 6.397054 -2.115946 2.034886
H 6.728020 -1.943305 0.309806
H 6.557726 -3.537032 1.018216
