68

C -4.798177 -8.512024 -4.226582
C -3.584877 -9.209487 -4.290859
C -2.472372 -8.756639 -3.554074
C -2.685045 -7.602414 -2.761542
N -3.838379 -6.926680 -2.683798
C -4.871212 -7.377197 -3.411699
C -1.126470 -9.436390 -3.568466
C -0.856914 -10.666620 -4.191909
C 0.452439 -11.142956 -4.065539
N 1.421297 -10.502902 -3.416241
C 1.079012 -9.322412 -2.860920
N -0.141277 -8.786079 -2.918800
N 2.108166 -8.674012 -2.204755
C 2.199882 -7.465257 -1.427580
C 3.338668 -7.270101 -0.587207
C 3.390769 -6.085986 0.164958
C 2.402330 -5.097420 0.130728
C 1.301453 -5.285497 -0.712439
C 1.217717 -6.465473 -1.471232
N 0.213127 -4.364176 -0.855671
C -0.100871 -3.225475 -0.149695
C -1.479202 -2.658508 -0.405609
C -1.604258 -1.406176 -1.025039
C -2.869727 -0.881332 -1.297575
C -4.045015 -1.579027 -0.957531
C -3.898943 -2.832366 -0.331129
C -2.638364 -3.366519 -0.053013
C -5.426888 -0.973196 -1.210741
N -6.008367 -0.031393 -0.240273
C -5.491753 1.354703 -0.173061
C -4.391317 1.583782 0.895702
N -4.770508 1.132201 2.255969
C -5.597516 2.050460 3.047473
C -5.230559 -0.275955 2.179737
C -6.334007 -0.522696 1.118250
O 0.667430 -2.678171 0.623155
C 4.469154 -8.277781 -0.458939
H -5.664838 -8.836617 -4.794804
H -3.525177 -10.085463 -4.932160
H -1.887226 -7.211700 -2.137765
H -5.791255 -6.801165 -3.326409
H -1.589483 -11.258168 -4.726911
H 0.763973 -12.092913 -4.499343
H 2.933260 -9.253302 -2.239788
H 4.241690 -5.911837 0.822344
H 2.479529 -4.201433 0.733795
H 0.375169 -6.613404 -2.127915
H -0.477303 -4.628626 -1.545260
H -0.703943 -0.856974 -1.288797
H -2.940211 0.094510 -1.777397
H -4.781881 -3.402981 -0.044469
H -2.540895 -4.336524 0.428314
H -5.400035 -0.460860 -2.182749
H -6.148229 -1.796067 -1.316558
H -5.130537 1.711569 -1.233400
H -6.644534 2.226131 0.188480
H -4.074822 2.893659 0.946841
H -3.312572 0.944260 0.569882
H -6.585741 2.179986 2.592022
H -5.110916 3.029876 3.121210
H -5.725060 1.662523 4.064809
H -5.605160 -0.636680 3.283775
H -4.055084 -1.083950 1.836927
H -7.541336 0.193801 1.558593
H -6.628918 -1.695751 1.079536
H 4.995227 -8.448554 -1.408975
H 4.094868 -9.247092 -0.117840
H 5.230313 -7.967487 0.261555
