68

C 2.221710 4.663924 -0.429312
C 3.236021 3.764763 -0.786407
C 3.093129 2.392105 -0.500431
C 1.888841 2.021438 0.144950
N 0.907886 2.863399 0.490570
C 1.080146 4.162715 0.206268
C 4.124429 1.349998 -0.854480
C 5.332910 1.600106 -1.524460
C 6.132749 0.479907 -1.772825
N 5.817917 -0.761411 -1.415678
C 4.643068 -0.906648 -0.767171
N 3.806919 0.093963 -0.480032
N 4.330882 -2.205409 -0.405451
C 3.199913 -2.816670 0.241013
C 2.970746 -4.213785 0.048622
C 1.866379 -4.780937 0.704823
C 0.993176 -4.059340 1.525653
C 1.227926 -2.691009 1.693201
C 2.329569 -2.089968 1.064827
N 0.443415 -1.833075 2.499969
C -0.919591 -1.776616 2.635399
C -1.720054 -1.440146 1.395579
C -1.246691 -0.581870 0.390710
C -2.042890 -0.278897 -0.715334
C -3.342726 -0.802270 -0.848142
C -3.813763 -1.643297 0.178395
C -3.025391 -1.947042 1.290539
C -4.225201 -0.440076 -2.043476
N -5.090690 0.749309 -1.966928
C -4.468581 2.091212 -1.980919
C -4.248172 2.754668 -0.597388
N -5.459671 2.773438 0.256207
C -6.420930 3.854531 0.001536
C -6.017424 1.402017 0.334890
C -6.247708 0.729921 -1.043905
O -1.472105 -1.960329 3.706410
C 3.849116 -5.095167 -0.823510
H 2.310936 5.725696 -0.638596
H 4.120483 4.158466 -1.281018
H 1.708743 0.979458 0.383947
H 0.267534 4.825142 0.500060
H 5.652047 2.580392 -1.856143
H 7.083184 0.588315 -2.294683
H 5.043027 -2.830547 -0.752599
H 1.665072 -5.844935 0.584639
H 0.160622 -4.543554 2.022910
H 2.521510 -1.037115 1.211309
H 0.881404 -1.205961 3.159746
H -0.259975 -0.142183 0.487433
H -1.645459 0.395226 -1.473976
H -4.821773 -2.054447 0.126733
H -3.406192 -2.575548 2.091734
H -3.578969 -0.306838 -2.923031
H -4.880747 -1.296406 -2.259519
H -3.305226 2.058379 -2.652953
H -5.431018 3.034498 -2.758033
H -3.855376 3.743874 -0.685393
H -3.235114 1.949190 0.121406
H -6.870864 3.754155 -0.992722
H -5.920726 4.827669 0.065859
H -7.218132 3.835661 0.753574
H -6.941278 1.415157 0.941159
H -5.019003 0.574660 1.069582
H -7.390808 1.553825 -1.725049
H -6.650747 -0.374753 -0.912154
H 4.856866 -5.201129 -0.397861
H 3.959893 -4.679906 -1.835245
H 3.449557 -6.111263 -0.946777
