68

C 0.032236 4.479004 -1.347785
C 1.295396 4.404878 -0.744525
C 1.906983 3.151324 -0.549877
C 1.183650 2.030707 -1.027224
N -0.022670 2.080165 -1.606531
C -0.584921 3.290063 -1.754664
C 3.247731 2.961000 0.113442
C 4.128313 3.988316 0.488909
C 5.332754 3.575159 1.072506
N 5.665325 2.304211 1.292231
C 4.752723 1.385344 0.916936
N 3.583922 1.680236 0.347028
N 5.089818 0.064974 1.155444
C 4.462207 -1.184394 0.799906
C 5.239388 -2.381381 0.764401
C 4.580637 -3.565111 0.391178
C 3.223924 -3.632275 0.052480
C 2.468298 -2.455586 0.097026
C 3.097383 -1.264429 0.492819
N 1.069234 -2.331654 -0.205594
C 0.162863 -3.192648 -0.797117
C -1.209280 -2.585213 -1.034545
C -1.437430 -1.256073 -1.425487
C -2.740106 -0.773627 -1.569164
C -3.874985 -1.562955 -1.277335
C -3.616884 -2.929659 -1.020547
C -2.319797 -3.427454 -0.870343
C -5.313728 -1.048560 -1.535527
N -5.433094 0.301940 -0.870173
C -4.582764 0.732904 0.278964
C -5.092255 0.215898 1.652236
N -6.504859 0.543395 1.973386
C -6.733818 1.870564 2.558764
C -7.358055 0.193865 0.810621
C -6.826233 0.716731 -0.550885
O 0.505016 -4.365015 -0.818716
C 6.722191 -2.422274 1.092941
H -0.463268 5.433571 -1.499182
H 1.770650 5.326067 -0.416063
H 1.608841 1.034302 -0.958507
H -1.565975 3.295517 -2.227335
H 3.939334 5.044088 0.338224
H 6.091593 4.290378 1.389199
H 6.020068 0.021972 1.543189
H 5.147421 -4.494488 0.351417
H 2.756229 -4.564594 -0.235291
H 2.511120 -0.363787 0.571591
H 0.687947 -1.408349 -0.057770
H -0.596689 -0.597942 -1.633913
H -2.862332 0.242348 -1.943236
H -4.443390 -3.632608 -0.914085
H -2.150497 -4.473317 -0.623147
H -6.055801 -0.861632 -2.310586
H -5.721284 -1.866755 -0.924578
H -3.758435 0.529632 0.160504
H -4.605271 2.237730 0.320480
H -4.244001 0.758811 2.709018
H -4.956473 -1.290819 1.686105
H -6.470826 2.657762 1.844557
H -6.131193 1.995260 3.465910
H -7.786049 1.985115 2.844204
H -8.494742 0.602032 1.007127
H -7.427956 -1.217669 0.761560
H -6.879926 2.213668 -0.554268
H -7.800939 0.236645 -1.683248
H 6.934444 -2.122896 2.129338
H 7.288799 -1.752340 0.440275
H 7.153796 -3.418604 0.967074
