68

C -0.502564 4.140732 -0.716703
C 0.861110 4.126722 -0.395070
C 1.615498 2.963196 -0.625862
C 0.932281 1.863942 -1.196313
N -0.372439 1.857764 -1.500767
C -1.068031 2.981443 -1.262745
C 3.064652 2.843478 -0.266268
C 4.075622 3.758879 -0.581071
C 5.346400 3.430248 -0.091252
N 5.626337 2.332711 0.610687
C 4.587681 1.502652 0.845323
N 3.340097 1.732055 0.433256
N 4.860042 0.348658 1.563883
C 4.041107 -0.785460 1.932188
C 4.661416 -1.995952 2.365791
C 3.814246 -3.067996 2.697894
C 2.417226 -3.019515 2.610644
C 1.825563 -1.824928 2.189736
C 2.643230 -0.729250 1.874310
N 0.428445 -1.588187 2.006540
C -0.657713 -2.429203 2.033549
C -1.963939 -1.855670 1.517441
C -2.019850 -0.953730 0.440865
C -3.236350 -0.392164 0.051923
C -4.434327 -0.707035 0.719145
C -4.372920 -1.659797 1.754654
C -3.162716 -2.245391 2.135192
C -5.737672 0.011118 0.367706
N -5.999692 1.327519 0.979833
C -5.258527 2.509289 0.483152
C -3.973932 2.851884 1.280988
N -4.188761 2.993139 2.739953
C -4.699063 4.286892 3.208323
C -4.888830 1.785879 3.243335
C -6.167416 1.407765 2.449495
O -0.602882 -3.571203 2.461256
C 6.166499 -2.171998 2.467226
H -1.112648 5.021591 -0.540974
H 1.317035 5.007696 0.051758
H 1.470411 0.939281 -1.395167
H -2.125436 2.948410 -1.520927
H 3.906301 4.664559 -1.151801
H 6.192112 4.091931 -0.276593
H 5.845375 0.297458 1.775276
H 4.253598 -4.007944 3.029211
H 1.800091 -3.877660 2.848335
H 2.181692 0.189484 1.545319
H 0.211436 -0.637922 1.740354
H -1.107587 -0.680286 -0.084916
H -3.236926 0.323102 -0.770523
H -5.278763 -1.939550 2.291843
H -3.119670 -2.976132 2.938847
H -5.783029 0.147395 -0.722652
H -6.580830 -0.639995 0.640704
H -5.084787 2.434165 -0.562291
H -6.215627 3.759012 0.687744
H -3.465245 4.145631 0.754605
H -3.154337 2.059378 1.118592
H -5.714529 4.467521 2.838345
H -4.047237 5.097758 2.863971
H -4.714062 4.312421 4.303944
H -5.113651 1.912413 4.353127
H -3.937784 0.656759 3.112570
H -7.190116 2.571758 2.730826
H -6.635692 0.460798 2.845119
H 6.599761 -1.493521 3.215820
H 6.661008 -1.965295 1.507481
H 6.459912 -3.190403 2.757515
