68

C -0.169989 4.498853 -1.231086
C 1.165267 4.390312 -0.817567
C 1.746989 3.119122 -0.639631
C 0.907598 2.015524 -0.932811
N -0.366991 2.096122 -1.335941
C -0.891054 3.323647 -1.471423
C 3.170720 2.907412 -0.183718
C 4.119658 3.918308 0.036062
C 5.389327 3.482292 0.431761
N 5.724736 2.208757 0.619180
C 4.744033 1.305730 0.408858
N 3.504801 1.618231 0.018130
N 5.092957 -0.020482 0.628549
C 4.389109 -1.268331 0.454213
C 5.118594 -2.495265 0.422110
C 4.379814 -3.675679 0.227068
C 2.988972 -3.711685 0.066015
C 2.287131 -2.503778 0.123941
C 2.996968 -1.308437 0.316828
N 0.875024 -2.337087 -0.026817
C -0.116750 -3.213718 -0.398424
C -1.472861 -2.609892 -0.713358
C -1.619467 -1.358401 -1.335975
C -2.888071 -0.823251 -1.561017
C -4.052985 -1.514667 -1.181766
C -3.893414 -2.783279 -0.590594
C -2.627276 -3.333300 -0.373578
C -5.432287 -0.876059 -1.351152
N -5.910077 0.051568 -0.308241
C -5.335097 1.414831 -0.241906
C -4.149851 1.574901 0.744817
N -4.438612 1.102385 2.119047
C -5.157563 2.033873 2.996266
C -4.964765 -0.282772 2.051565
C -6.140265 -0.475206 1.057035
O 0.057793 -4.420526 -0.458828
C 6.629315 -2.572327 0.562231
H -0.640531 5.468696 -1.363502
H 1.720554 5.304902 -0.624738
H 1.299380 1.006990 -0.861166
H -1.929692 3.364203 -1.795767
H 3.926629 4.974420 -0.106392
H 6.186583 4.203986 0.607423
H 6.068371 -0.077091 0.880666
H 4.904987 -4.629115 0.182428
H 2.457265 -4.641582 -0.095334
H 2.461453 -0.374326 0.362988
H 0.560332 -1.384729 0.095669
H -0.738718 -0.787975 -1.620729
H -2.958612 0.164940 -2.015087
H -4.768596 -3.350613 -0.274755
H -2.511175 -4.307564 0.094378
H -5.457009 -0.327930 -2.303968
H -6.174425 -1.684099 -1.427741
H -5.116427 1.772868 -1.198697
H -6.476732 2.355698 0.334080
H -3.820716 3.019792 0.804660
H -3.189011 1.001583 0.356313
H -6.173025 2.218675 2.628240
H -4.622644 2.988632 3.053714
H -5.219564 1.623868 4.010796
H -5.239799 -0.629786 3.084898
H -3.841556 -1.142569 1.579666
H -7.341194 0.344070 1.669651
H -6.472627 -1.558177 1.012093
H 6.960290 -2.206401 1.544443
H 7.135878 -1.967676 -0.203384
H 7.017808 -3.595103 0.460753
