68

C 1.013696 4.777196 -2.352253
C 2.339892 4.548322 -1.960142
C 2.744973 3.256797 -1.568804
C 1.744621 2.254650 -1.629768
N 0.474878 2.450383 -2.006689
C 0.123167 3.697377 -2.354792
C 4.148145 2.918146 -1.128813
C 5.243198 3.796797 -1.125913
C 6.460727 3.245845 -0.709618
N 6.622853 1.984666 -0.318680
C 5.511566 1.219109 -0.329857
N 4.306485 1.646243 -0.715848
N 5.680507 -0.090888 0.090708
C 4.791666 -1.225529 0.167199
C 5.335089 -2.531387 0.362942
C 4.425485 -3.600100 0.435761
C 3.035564 -3.448598 0.368090
C 2.515615 -2.155222 0.253720
C 3.399614 -1.067862 0.166823
N 1.126917 -1.810804 0.197079
C 0.006724 -2.595863 0.053507
C -1.306575 -1.897646 -0.241595
C -1.409857 -0.760594 -1.058720
C -2.649425 -0.152993 -1.269703
C -3.835027 -0.653562 -0.691912
C -3.712124 -1.806901 0.103456
C -2.477884 -2.422296 0.326418
C -5.136125 0.098677 -0.982325
N -6.185810 0.307758 0.042855
C -5.940423 1.332800 1.088276
C -5.528089 0.835662 2.495111
N -6.433400 -0.200030 3.045244
C -7.679873 0.269632 3.662132
C -6.537084 -1.293443 2.054011
C -6.946793 -0.820022 0.632637
O 0.039884 -3.807345 0.203501
C 6.825340 -2.813875 0.446258
H 0.677724 5.766146 -2.649690
H 3.027990 5.390037 -1.954448
H 1.993608 1.228042 -1.383526
H -0.914732 3.831641 -2.655286
H 5.193612 4.830428 -1.445843
H 7.362735 3.856979 -0.694580
H 6.650171 -0.257275 0.314624
H 4.805021 -4.614339 0.553925
H 2.368744 -4.300041 0.428612
H 3.006026 -0.067043 0.090072
H 0.934837 -0.819156 0.165795
H -0.517130 -0.344332 -1.520327
H -2.680258 0.735098 -1.901864
H -4.590933 -2.294614 0.509135
H -2.403176 -3.323984 0.929295
H -5.018079 1.151340 -1.279428
H -5.608596 -0.381711 -1.851035
H -4.847434 2.301161 0.626702
H -7.244518 2.128538 1.270201
H -5.407216 1.588435 3.169826
H -4.097928 0.132298 2.289143
H -8.335247 0.737653 2.919090
H -7.459061 1.002144 4.446930
H -8.211777 -0.569112 4.125439
H -7.618093 -2.253701 2.511055
H -5.736537 -1.761505 2.073410
H -8.453343 -0.248143 0.843456
H -7.031691 -1.644944 -0.078891
H 7.274603 -2.338648 1.329722
H 7.356691 -2.435997 -0.438732
H 7.055221 -3.886150 0.514658
