68

C 0.394105 5.277439 0.804653
C 1.557129 4.836689 0.159155
C 2.126747 3.594534 0.503891
C 1.457564 2.867733 1.520130
N 0.346666 3.275487 2.146368
C -0.171644 4.458869 1.788123
C 3.369966 3.039630 -0.143773
C 4.115947 3.668846 -1.155033
C 5.225569 2.958294 -1.628516
N 5.595277 1.760197 -1.185000
C 4.822904 1.243765 -0.209738
N 3.735750 1.822328 0.301728
N 5.166612 -0.012011 0.214701
C 4.442342 -1.249686 0.206749
C 5.144815 -2.471296 0.432775
C 4.385779 -3.652182 0.447175
C 2.996025 -3.685499 0.291048
C 2.314748 -2.474105 0.127239
C 3.045251 -1.273559 0.090661
N 0.897483 -2.334419 -0.027569
C -0.082321 -3.278248 -0.234361
C -1.463937 -2.796109 -0.629618
C -1.681395 -1.696115 -1.475101
C -2.980857 -1.297259 -1.796043
C -4.104346 -2.001303 -1.323501
C -3.870865 -3.077666 -0.445854
C -2.575625 -3.492532 -0.128013
C -5.515393 -1.470952 -1.568637
N -6.092489 -0.404424 -0.735461
C -5.655980 0.991018 -0.958626
C -4.502601 1.455962 -0.033544
N -4.770485 1.256069 1.409557
C -5.584568 2.279178 2.076498
C -5.163655 -0.156329 1.637710
C -6.298459 -0.661493 0.707913
O 0.117931 -4.470005 -0.062819
C 6.649017 -2.548893 0.630098
H -0.063148 6.229885 0.553506
H 1.992230 5.474530 -0.606230
H 1.847477 1.906781 1.844830
H -1.075237 4.759809 2.315386
H 3.875325 4.639486 -1.570796
H 5.851182 3.376796 -2.416401
H 6.132144 -0.029044 0.508619
H 4.888672 -4.606523 0.597785
H 2.450447 -4.620864 0.314510
H 2.528991 -0.328839 -0.016693
H 0.569947 -1.380232 -0.084346
H -0.829227 -1.153949 -1.877402
H -3.117795 -0.421981 -2.431193
H -4.712086 -3.611170 -0.003496
H -2.405829 -4.341024 0.529833
H -5.659049 -1.148968 -2.609686
H -6.198112 -2.332097 -1.521505
H -5.452609 1.163196 -1.982928
H -6.881448 1.912363 -0.588676
H -4.303606 2.913790 -0.279478
H -3.509351 0.911749 -0.292417
H -6.610243 2.279608 1.690835
H -5.147140 3.271886 1.920467
H -5.614246 2.092513 3.156211
H -5.404917 -0.302828 2.690458
H -3.937453 -1.002298 1.333680
H -7.580472 0.144982 1.140732
H -6.524645 -1.755210 0.885824
H 6.955406 -2.058140 1.564761
H 7.189026 -2.060356 -0.193388
H 7.022092 -3.581256 0.678954
