68

C -0.361566 4.391921 0.890419
C 0.994547 4.214457 1.199259
C 1.644199 3.020683 0.831600
C 0.853776 2.077725 0.130358
N -0.437740 2.230086 -0.177132
C -1.032515 3.370856 0.205445
C 3.091895 2.718893 1.121219
C 4.034386 3.620172 1.641476
C 5.338527 3.125640 1.775080
N 5.711598 1.886453 1.457337
C 4.735105 1.084349 0.986782
N 3.470469 1.465062 0.819530
N 5.105501 -0.207935 0.667778
C 4.391628 -1.319350 0.083023
C 5.128584 -2.416436 -0.458449
C 4.392290 -3.482727 -1.001666
C 2.994128 -3.518745 -1.058543
C 2.285826 -2.403072 -0.599516
C 2.990966 -1.367139 0.030351
N 0.860337 -2.307310 -0.520406
C -0.074662 -3.218565 -0.073449
C -1.505368 -2.727391 -0.194138
C -2.048307 -2.079405 -1.313161
C -3.417252 -1.793915 -1.361493
C -4.333665 -2.322968 -0.422861
C -3.714516 -2.673337 0.805661
C -2.348588 -2.949272 0.903905
C -5.821202 -1.863793 -0.531719
N -5.926433 -0.454973 -0.042217
C -5.958303 0.603231 -1.093331
C -4.697267 1.470727 -1.348074
N -4.166540 2.099314 -0.119271
C -4.906644 3.257163 0.397653
C -3.912784 0.995911 0.836891
C -5.142793 0.085738 1.106520
O 0.418271 -4.125908 0.574535
C 6.646898 -2.476004 -0.463054
H -0.890096 5.297599 1.172361
H 1.515411 5.001920 1.739111
H 1.289635 1.151644 -0.227287
H -2.084992 3.467193 -0.047671
H 3.816513 4.647625 1.905912
H 6.151044 3.746013 2.152443
H 6.097284 -0.317056 0.816276
H 4.926765 -4.344144 -1.400441
H 2.463482 -4.395884 -1.407229
H 2.431134 -0.580220 0.507345
H 0.488883 -1.412444 -0.809457
H -1.401666 -1.823596 -2.148644
H -3.796362 -1.271204 -2.238814
H -4.327399 -2.838339 1.692512
H -1.930273 -3.370343 1.815273
H -6.528843 -1.929683 -1.360326
H -5.918267 -2.732806 0.135796
H -6.391960 -0.008470 -2.443983
H -7.105755 1.580226 -0.672700
H -4.999334 2.456268 -2.259788
H -3.940003 0.904663 -1.762029
H -5.917870 2.965817 0.696685
H -4.975386 4.037684 -0.369110
H -4.390994 3.681702 1.267127
H -3.453819 1.546998 2.060722
H -2.819657 0.210054 0.297644
H -6.171897 1.010233 1.896420
H -4.926150 -0.600798 1.714121
H 7.075106 -2.474980 0.549571
H 7.071750 -1.619227 -0.993831
H 7.031949 -3.370538 -0.959362
