68

C -0.486520 4.730122 0.281574
C 0.909199 4.638753 0.220653
C 1.535317 3.375931 0.189235
C 0.666276 2.258564 0.220455
N -0.670686 2.326328 0.279503
C -1.228987 3.546085 0.311282
C 3.032488 3.192287 0.136400
C 3.953296 4.254942 0.151860
C 5.303922 3.898974 0.114999
N 5.741108 2.645369 0.063014
C 4.792847 1.685417 0.043272
N 3.477464 1.918844 0.078963
N 5.310191 0.403428 -0.012948
C 4.765494 -0.927443 -0.087308
C 5.672121 -2.030455 -0.156794
C 5.118678 -3.316427 -0.247495
C 3.744850 -3.570811 -0.271512
C 2.860543 -2.490646 -0.166516
C 3.387917 -1.187313 -0.102270
N 1.422567 -2.588692 -0.203391
C 0.559708 -3.674750 -0.248611
C -0.891606 -3.234194 -0.189570
C -1.427486 -2.171306 -0.932622
C -2.760555 -1.790629 -0.760919
C -3.591002 -2.380894 0.218686
C -3.059294 -3.514163 0.871683
C -1.731492 -3.914535 0.705098
C -5.111518 -2.151111 0.373480
N -5.188690 -0.712220 0.031184
C -6.361161 -0.309025 -0.776316
C -6.365627 1.180728 -1.210179
N -6.206580 2.146689 -0.094764
C -7.427764 2.464272 0.657099
C -5.034249 1.733675 0.716295
C -5.047778 0.246561 1.153366
O 1.114452 -4.742753 -0.044971
C 7.185052 -1.882576 -0.144942
H -0.987986 5.693144 0.305855
H 1.481018 5.562918 0.196886
H 1.070535 1.252377 0.206048
H -2.315788 3.568794 0.365609
H 3.685440 5.302999 0.198886
H 6.098161 4.644904 0.128575
H 6.316517 0.468973 -0.025018
H 5.783382 -4.176853 -0.315016
H 3.365507 -4.579952 -0.356508
H 2.719966 -0.342177 -0.064654
H 0.961594 -1.694835 -0.107528
H -0.800341 -1.659526 -1.658478
H -3.148745 -1.009099 -1.411360
H -3.690346 -4.094531 1.544894
H -1.330838 -4.757815 1.263169
H -5.360767 -2.942480 -0.348906
H -5.867968 -2.162388 1.161898
H -6.397448 -1.158255 -2.031409
H -7.642252 -0.608212 0.033172
H -7.297828 1.436952 -1.814992
H -5.194544 1.374075 -2.105097
H -7.810761 1.571240 1.162020
H -8.200445 2.850863 -0.018047
H -7.223891 3.237125 1.407570
H -4.913012 2.420147 1.586284
H -3.808870 1.893528 -0.172767
H -6.183820 0.013165 2.167266
H -3.724916 -0.032868 1.852539
H 7.554174 -1.355538 0.746366
H 7.530783 -1.322846 -1.018502
H 7.703743 -2.844503 -0.165027
