68

C 0.561833 4.150363 -0.773365
C -0.815829 4.182177 -0.519481
C -1.552154 2.981781 -0.494831
C -0.816862 1.801556 -0.772714
N 0.499797 1.750568 -1.006849
C 1.173669 2.911663 -0.998008
C -3.007492 2.902901 -0.107873
C -3.821585 3.980213 0.278460
C -5.099332 3.640571 0.741871
N -5.558038 2.395344 0.850569
C -4.706185 1.429454 0.451127
N -3.485206 1.647955 -0.035706
N -5.139942 0.123308 0.554603
C -4.481258 -1.099881 0.209914
C -5.246513 -2.171028 -0.336744
C -4.566861 -3.372897 -0.594749
C -3.198648 -3.558915 -0.362508
C -2.467427 -2.497396 0.182583
C -3.133096 -1.308454 0.522466
N -1.058129 -2.488639 0.430554
C -0.062079 -3.291103 -0.077550
C 1.374204 -2.921052 0.237439
C 1.786404 -2.329869 1.442224
C 3.120832 -1.959068 1.624282
C 4.103704 -2.253937 0.660577
C 3.682894 -2.882806 -0.526147
C 2.343526 -3.216446 -0.736101
C 5.539855 -1.768311 0.839219
N 5.947450 -0.400886 0.485330
C 5.656475 0.715844 1.411120
C 4.426893 1.584347 1.031805
N 4.412568 2.066545 -0.371367
C 5.241207 3.247059 -0.650328
C 4.599416 0.901549 -1.267076
C 5.833184 0.031049 -0.924260
O -0.299001 -4.239141 -0.809501
C -6.730391 -2.058526 -0.638612
H 1.156306 5.058995 -0.770265
H -1.279122 5.142805 -0.307899
H -1.322195 0.839601 -0.784183
H 2.246645 2.843486 -1.160518
H -3.498513 5.014027 0.273771
H -5.786980 4.419542 1.070718
H -6.042931 0.099380 1.005457
H -5.114788 -4.210406 -1.024575
H -2.701146 -4.482815 -0.630773
H -2.592545 -0.481708 0.962853
H -0.705100 -1.628102 0.824983
H 1.049447 -2.114733 2.211960
H 3.402020 -1.451883 2.547461
H 4.401519 -3.092949 -1.317689
H 2.025403 -3.691870 -1.660687
H 5.908787 -1.948414 1.858494
H 6.184840 -2.454842 0.271381
H 5.593989 0.350109 2.453044
H 6.888844 1.690415 1.347156
H 4.318741 2.504899 1.763183
H 3.202528 0.718175 1.202385
H 6.303901 3.029119 -0.495182
H 4.950382 4.075239 0.006252
H 5.095702 3.573178 -1.686869
H 4.602855 1.226377 -2.288546
H 3.331305 -0.030715 -1.069893
H 7.073611 0.897343 -1.240372
H 5.867352 -1.026212 -1.734753
H -6.975486 -1.109678 -1.136139
H -7.327978 -2.110937 0.282260
H -7.090475 -2.858584 -1.300316
