68

C -1.880656 5.116362 -0.822322
C -3.169472 4.568624 -0.767835
C -3.340343 3.208054 -0.447035
C -2.154986 2.487876 -0.158073
N -0.915598 2.993555 -0.200544
C -0.789912 4.287227 -0.535693
C -4.680325 2.518060 -0.398270
C -5.929939 3.153565 -0.483036
C -7.047581 2.314144 -0.394887
N -6.985311 0.991198 -0.254480
C -5.745453 0.464209 -0.200252
N -4.622911 1.180950 -0.265373
N -5.682414 -0.912150 -0.071964
C -4.589122 -1.835011 0.115871
C -4.852377 -3.151668 0.601983
C -3.748956 -4.000655 0.792890
C -2.423064 -3.630299 0.538830
C -2.177499 -2.346753 0.039596
C -3.263558 -1.482518 -0.170911
N -0.888884 -1.801371 -0.273204
C 0.383283 -2.272907 -0.042786
C 1.548670 -1.344443 -0.336972
C 1.475731 0.058304 -0.284885
C 2.595404 0.839165 -0.583253
C 3.842794 0.260887 -0.893447
C 3.891581 -1.143676 -0.963699
C 2.779680 -1.935206 -0.666866
C 5.057021 1.147921 -1.187090
N 6.343942 1.009862 -0.481510
C 7.223694 -0.162300 -0.701920
C 7.096266 -1.314281 0.331898
N 7.212213 -0.866814 1.739790
C 8.568432 -0.670113 2.265300
C 6.244559 0.234980 1.963049
C 6.383452 1.397709 0.948843
O 0.591859 -3.405391 0.365618
C -6.247122 -3.654077 0.935646
H -1.724076 6.158950 -1.082719
H -4.017506 5.206724 -1.004355
H -2.205834 1.447889 0.148940
H 0.230707 4.666142 -0.564108
H -6.068857 4.223038 -0.584420
H -8.063544 2.705954 -0.435432
H -6.617431 -1.283757 0.001426
H -3.915841 -5.008358 1.171563
H -1.599283 -4.309606 0.718274
H -3.079533 -0.502066 -0.577006
H -0.922725 -0.887702 -0.702384
H 0.543352 0.545182 -0.007760
H 2.488689 1.923487 -0.545418
H 4.799393 -1.638414 -1.299008
H 2.845912 -3.019792 -0.706943
H 5.280546 1.034039 -2.257849
H 4.756655 2.191515 -1.016642
H 7.102743 -0.575373 -1.842471
H 8.649495 0.358065 -0.588791
H 8.084058 -2.250767 0.083573
H 6.213226 -1.799071 0.243039
H 9.074397 0.152193 1.747120
H 9.159066 -1.584908 2.139529
H 8.528549 -0.440928 3.336455
H 6.325462 0.601359 3.029926
H 4.834650 -0.374056 1.791669
H 7.661648 2.058818 1.186994
H 5.343748 2.373323 1.219254
H -6.917777 -3.654050 0.064679
H -6.715926 -3.032896 1.703768
H -6.245559 -4.676699 1.321553
