68

C -1.929100 5.244053 -0.783344
C -3.185900 4.625697 -0.822063
C -3.300509 3.243048 -0.572807
C -2.089696 2.570123 -0.274940
N -0.881441 3.144941 -0.226831
C -0.810511 4.459384 -0.483247
C -4.614856 2.501810 -0.584696
C -5.876230 3.092506 -0.766178
C -6.969896 2.223759 -0.693218
N -6.876254 0.914605 -0.482663
C -5.624633 0.428652 -0.343494
N -4.514952 1.171354 -0.390253
N -5.548805 -0.940254 -0.143364
C -4.467836 -1.848751 0.143180
C -4.769040 -3.138503 0.677941
C -3.684681 -3.986558 0.957059
C -2.347591 -3.641783 0.731854
C -2.069262 -2.384326 0.185468
C -3.130050 -1.505953 -0.092278
N -0.762924 -1.881241 -0.114633
C 0.484341 -2.381890 0.176046
C 1.641140 -1.462783 -0.145086
C 2.551425 -1.828270 -1.147760
C 3.599047 -0.970155 -1.489595
C 3.775654 0.267880 -0.841708
C 2.862037 0.609197 0.174292
C 1.811679 -0.241864 0.525059
C 4.930061 1.199662 -1.214297
N 6.222744 1.068709 -0.519789
C 7.055875 -0.127018 -0.784409
C 6.910814 -1.281085 0.241399
N 7.060222 -0.864579 1.655349
C 8.432811 -0.741678 2.160257
C 6.158190 0.281131 1.911247
C 6.304920 1.453293 0.907489
O 0.674242 -3.493440 0.639988
C -6.180643 -3.614166 0.977750
H -1.819035 6.306865 -0.976876
H -4.051416 5.239729 -1.058155
H -2.101451 1.511640 -0.037953
H 0.184230 4.899604 -0.438478
H -6.035275 4.152355 -0.922959
H -7.983988 2.606227 -0.806048
H -6.482129 -1.320889 -0.097594
H -3.874960 -4.973174 1.377950
H -1.541673 -4.327744 0.962990
H -2.926025 -0.532880 -0.511513
H -0.753353 -0.985819 -0.584090
H 2.418741 -2.779985 -1.655933
H 4.289846 -1.276792 -2.274628
H 2.964772 1.556134 0.703856
H 1.103859 0.040496 1.300577
H 5.133059 1.082997 -2.288749
H 4.594957 2.236942 -1.068116
H 6.905700 -0.482595 -1.822875
H 8.560333 0.333709 -0.678608
H 7.681932 -2.154960 0.005314
H 5.564690 -1.833621 0.102763
H 8.970154 0.064883 1.648990
H 8.977153 -1.680412 2.006508
H 8.422386 -0.533024 3.236075
H 6.383230 0.754098 3.189319
H 4.815524 -0.211380 1.846182
H 7.755037 2.016339 1.140226
H 5.630792 2.254844 1.121921
H -6.777134 -3.702281 0.058886
H -6.706206 -2.919233 1.647801
H -6.207500 -4.597740 1.466490
