68

C -0.161918 4.501567 -1.229031
C 1.173181 4.392742 -0.815502
C 1.760772 3.121466 -0.659527
C 0.927744 2.018566 -0.973130
N -0.346687 2.099915 -1.376783
C -0.876614 3.327130 -1.491483
C 3.182305 2.908764 -0.197782
C 4.123745 3.919522 0.053105
C 5.389144 3.481736 0.460787
N 5.726278 2.206555 0.633924
C 4.752873 1.303689 0.392451
N 3.519778 1.617711 -0.015424
N 5.102564 -0.024320 0.592785
C 4.400801 -1.269368 0.392106
C 5.122589 -2.501336 0.404276
C 4.381112 -3.681937 0.222307
C 2.990455 -3.715653 0.062914
C 2.292642 -2.505267 0.114629
C 3.005192 -1.309809 0.295821
N 0.880044 -2.337402 -0.019658
C -0.111751 -3.210854 -0.399510
C -1.470251 -2.608784 -0.704429
C -1.618374 -1.358116 -1.327890
C -2.888006 -0.829229 -1.560814
C -4.053629 -1.540679 -1.223224
C -3.890260 -2.785188 -0.583582
C -2.623413 -3.329372 -0.355273
C -5.420268 -0.870148 -1.339751
N -5.906466 0.045815 -0.294877
C -5.361666 1.420687 -0.235772
C -4.177738 1.604388 0.748501
N -4.451402 1.123481 2.123230
C -5.192876 2.035537 3.002296
C -4.947565 -0.272965 2.055582
C -6.124944 -0.488315 1.068224
O 0.063914 -4.417791 -0.452627
C 6.630046 -2.583867 0.570496
H -0.637512 5.471075 -1.344341
H 1.722511 5.306623 -0.603169
H 1.325057 1.010887 -0.916261
H -1.915046 3.368136 -1.816740
H 3.927528 4.977352 -0.071448
H 6.180554 4.203552 0.661131
H 6.071013 -0.088662 0.868467
H 4.901578 -4.638509 0.201847
H 2.455326 -4.646202 -0.082329
H 2.470037 -0.375828 0.353512
H 0.559544 -1.386031 0.095077
H -0.738596 -0.782763 -1.606112
H -2.960112 0.164373 -2.003233
H -4.764686 -3.342307 -0.247784
H -2.505798 -4.295958 0.128332
H -5.540721 -0.334296 -2.291577
H -6.167435 -1.668649 -1.457382
H -5.143595 1.782589 -1.208992
H -6.516889 2.338796 0.333275
H -3.868973 3.035974 0.806454
H -3.183484 1.023754 0.341074
H -6.212523 2.195649 2.633955
H -4.681596 3.003114 3.061907
H -5.245791 1.621661 4.015928
H -5.209592 -0.629513 3.094471
H -3.800412 -1.115658 1.565950
H -7.333442 0.302169 1.681683
H -6.431996 -1.555623 1.022147
H 6.943018 -2.225903 1.561432
H 7.152188 -1.975400 -0.181355
H 7.017402 -3.606955 0.468154
