68

C -5.235331 -4.756063 1.254232
C -4.718200 -3.925260 0.252163
C -4.593518 -2.540114 0.479436
C -5.018580 -2.080695 1.750391
N -5.516841 -2.861073 2.719028
C -5.619199 -4.174289 2.466836
C -4.039490 -1.572792 -0.535737
C -3.587239 -1.928408 -1.819550
C -3.101520 -0.883193 -2.614202
N -3.041072 0.386366 -2.222311
C -3.491705 0.627322 -0.976907
N -3.989250 -0.284708 -0.144704
N -3.464087 1.935990 -0.591863
C -2.369628 2.830901 -0.360793
C -2.635338 4.192732 -0.025575
C -1.527925 5.027859 0.188885
C -0.199945 4.597907 0.098928
C 0.049818 3.250404 -0.187132
C -1.038437 2.399565 -0.450154
N 1.348991 2.662023 -0.360887
C 2.620128 3.109634 -0.039288
C 3.698153 2.063412 -0.255726
C 3.750347 1.189663 -1.351055
C 4.776794 0.247896 -1.451263
C 5.876456 0.198546 -0.564851
C 5.729782 1.029350 0.575459
C 4.728831 1.996549 0.691880
C 6.701919 -1.124586 -0.561607
N 5.902968 -2.155385 0.175377
C 5.079377 -3.086055 -0.646016
C 3.567927 -2.774888 -0.819884
N 2.852531 -2.564838 0.462361
C 2.431156 -3.773155 1.181609
C 3.604676 -1.554831 1.250140
C 5.119183 -1.870010 1.410009
O 2.648269 4.152941 0.592604
C -4.037900 4.763318 0.101474
H -5.337350 -5.826496 1.101921
H -4.418371 -4.378338 -0.689552
H -4.949611 -1.024860 1.996381
H -6.026723 -4.775483 3.278113
H -3.596199 -2.936208 -2.215486
H -2.731144 -1.052000 -3.624900
H -4.403174 2.298270 -0.523588
H -1.694640 6.076343 0.432821
H 0.623384 5.281311 0.259520
H -0.860745 1.370281 -0.731268
H 1.352348 1.681643 -0.604046
H 2.975588 1.237618 -2.112338
H 4.742690 -0.451216 -2.286832
H 6.436916 0.935064 1.400252
H 4.700374 2.668322 1.546703
H 7.179307 -1.663539 -1.382667
H 7.427437 -0.451014 -0.081543
H 5.706476 -3.254947 -2.021977
H 5.180277 -4.478210 0.049404
H 2.983524 -3.792258 -1.485029
H 3.440177 -1.987925 -1.358231
H 3.301478 -4.355258 1.500060
H 1.801007 -4.398350 0.538185
H 1.840041 -3.504177 2.064528
H 3.008503 -1.476376 2.577676
H 3.456809 -0.629627 0.807270
H 5.193138 -3.181175 2.268219
H 5.581996 -1.179099 1.964488
H -4.651318 4.226881 0.839563
H -4.566589 4.717691 -0.854787
H -4.038734 5.812097 0.409280
