68

C -0.031729 4.493691 -1.319966
C 1.217250 4.410556 -0.688746
C 1.820310 3.153361 -0.490203
C 1.105616 2.039510 -0.995695
N -0.087108 2.097630 -1.601991
C -0.643257 3.310267 -1.750532
C 3.143157 2.951746 0.205691
C 4.013645 3.972469 0.621189
C 5.200246 3.549168 1.233471
N 5.525886 2.274859 1.443294
C 4.624662 1.362399 1.027210
N 3.472339 1.666980 0.428833
N 4.957487 0.038371 1.255007
C 4.343602 -1.206891 0.862044
C 5.123325 -2.402286 0.830273
C 4.477637 -3.581723 0.421644
C 3.131628 -3.645854 0.042021
C 2.374026 -2.470358 0.080690
C 2.988864 -1.284672 0.513880
N 0.985810 -2.340324 -0.263477
C 0.095106 -3.188413 -0.895955
C -1.264924 -2.565094 -1.161618
C -1.468044 -1.227027 -1.535738
C -2.761129 -0.725849 -1.700437
C -3.909723 -1.500636 -1.431453
C -3.675784 -2.877123 -1.210265
C -2.388995 -3.396845 -1.045395
C -5.351952 -1.005000 -1.663241
N -5.561557 0.332489 -0.989405
C -4.580698 0.997667 -0.085563
C -4.619408 0.483793 1.379666
N -5.948160 0.541246 2.038472
C -6.311499 1.834777 2.631301
C -6.954848 -0.059159 1.130686
C -6.890807 0.466739 -0.328983
O 0.434013 -4.361427 -0.926579
C 6.596856 -2.443990 1.198168
H -0.521035 5.450921 -1.474436
H 1.688553 5.327858 -0.344153
H 1.526775 1.041438 -0.926485
H -1.613701 3.322417 -2.244676
H 3.830487 5.030670 0.479914
H 5.950282 4.258435 1.582589
H 5.876622 -0.009186 1.668517
H 5.047260 -4.509540 0.384871
H 2.674334 -4.573976 -0.274328
H 2.399581 -0.385828 0.588574
H 0.602933 -1.418323 -0.112549
H -0.614672 -0.578278 -1.721188
H -2.856390 0.281468 -2.104153
H -4.514677 -3.568766 -1.127931
H -2.238873 -4.449688 -0.817187
H -6.121374 -0.807577 -2.411583
H -5.881501 -1.792127 -1.107816
H -3.832259 0.966052 -0.387286
H -4.922459 2.488948 -0.056896
H -3.677227 1.261510 2.181316
H -4.157528 -0.969532 1.404810
H -6.397307 2.603786 1.856439
H -5.553886 2.145020 3.360351
H -7.267498 1.755664 3.162254
H -8.051204 0.106602 1.588692
H -6.707655 -1.494662 1.128208
H -7.274568 1.904191 -0.347528
H -7.973742 -0.293011 -1.173432
H 6.780915 -2.157478 2.243553
H 7.178946 -1.763907 0.569666
H 7.034552 -3.437492 1.070100
