68

C 0.709719 1.159737 6.404933
C 1.762372 1.714644 5.664866
C 1.972784 1.318609 4.328253
C 1.056391 0.365292 3.820230
N 0.045306 -0.175140 4.511074
C -0.117434 0.218704 5.782535
C 3.086429 1.860484 3.465609
C 4.009898 2.841157 3.864856
C 4.956831 3.213110 2.905561
N 5.026913 2.698509 1.682098
C 4.108322 1.754124 1.387732
N 3.160501 1.328580 2.227831
N 4.207501 1.228167 0.109017
C 3.429373 0.282183 -0.647744
C 3.588867 0.236658 -2.066503
C 2.804507 -0.690909 -2.770042
C 1.895179 -1.564243 -2.163932
C 1.761231 -1.518117 -0.771042
C 2.526899 -0.597932 -0.036589
N 0.863672 -2.327616 -0.017893
C -0.132199 -3.166198 -0.442089
C -1.475594 -2.531774 -0.739684
C -1.628497 -1.245026 -1.282100
C -2.902165 -0.724620 -1.521200
C -4.064180 -1.466240 -1.237989
C -3.896971 -2.754810 -0.695998
C -2.627217 -3.285255 -0.457138
C -5.455319 -0.870490 -1.458889
N -6.043039 -0.006513 -0.420077
C -5.541552 1.377180 -0.263082
C -4.450720 1.549249 0.825193
N -4.827628 1.011953 2.153281
C -5.667694 1.868510 2.998303
C -5.272646 -0.393516 1.993212
C -6.354317 -0.599731 0.900885
O 0.034481 -4.366634 -0.565836
C 4.536701 1.140247 -2.837162
H 0.533249 1.447828 7.437044
H 2.403044 2.442952 6.155490
H 1.134244 0.032035 2.791378
H -0.948323 -0.237219 6.318185
H 4.013556 3.312063 4.840120
H 5.702832 3.973457 3.135876
H 4.949593 1.700322 -0.385477
H 2.894667 -0.748237 -3.854161
H 1.316552 -2.262146 -2.759295
H 2.426255 -0.553644 1.036946
H 0.903135 -2.226652 0.986466
H -0.752371 -0.645876 -1.512284
H -2.985666 0.280599 -1.934541
H -4.769300 -3.359136 -0.448388
H -2.508132 -4.284579 -0.045824
H -5.438516 -0.291378 -2.393623
H -6.164299 -1.695366 -1.621025
H -5.252112 1.781842 -1.197617
H -6.764756 2.246184 0.239540
H -4.186548 2.995253 0.960560
H -3.417503 1.010587 0.487352
H -6.659327 2.009641 2.554247
H -5.196270 2.848728 3.130702
H -5.787302 1.417797 3.990208
H -5.612448 -0.800119 2.996640
H -4.057569 -1.187876 1.570289
H -7.638193 0.134946 1.442127
H -6.624594 -1.681959 0.789531
H 5.584159 0.942592 -2.569257
H 4.337698 2.201788 -2.632820
H 4.461740 1.013444 -3.926070
