68

C 2.219473 6.255915 1.876900
C 2.753390 5.475943 0.842532
C 3.151251 4.147439 1.094770
C 2.974431 3.689470 2.424233
N 2.465996 4.422696 3.423530
C 2.097541 5.681584 3.146596
C 3.731081 3.237918 0.041361
C 3.941915 3.583312 -1.305417
C 4.497837 2.585274 -2.114642
N 4.811556 1.365040 -1.689648
C 4.549914 1.124170 -0.391208
N 4.046883 2.002142 0.474235
N 4.917945 -0.110835 0.055699
C 4.170816 -1.325308 0.180671
C 4.820373 -2.499344 0.666609
C 4.042461 -3.662922 0.770880
C 2.689044 -3.726148 0.423548
C 2.071204 -2.572061 -0.072075
C 2.817177 -1.384298 -0.179842
N 0.692554 -2.469967 -0.456532
C -0.316243 -3.406657 -0.454630
C -1.705924 -2.968685 -0.875823
C -1.955761 -1.935969 -1.794437
C -3.266272 -1.571793 -2.111680
C -4.371344 -2.246858 -1.560439
C -4.106642 -3.256253 -0.615484
C -2.800242 -3.631713 -0.295248
C -5.794047 -1.751346 -1.809236
N -6.379695 -0.656327 -1.020775
C -5.929185 0.728840 -1.278603
C -4.800060 1.219733 -0.336773
N -5.099102 1.062208 1.105149
C -5.929358 2.103148 1.722861
C -5.502261 -0.341727 1.361855
C -6.620160 -0.869381 0.424395
O -0.138603 -4.549130 -0.062409
C 6.282329 -2.538762 1.077271
H 1.904822 7.281141 1.705617
H 2.846591 5.926410 -0.142602
H 3.260333 2.674432 2.685968
H 1.687424 6.249859 3.979806
H 3.711430 4.554786 -1.725128
H 4.703610 2.779697 -3.166807
H 5.905448 -0.130796 0.263611
H 4.498617 -4.577328 1.147986
H 2.125830 -4.644750 0.531974
H 2.349900 -0.478919 -0.544075
H 0.400886 -1.526475 -0.667702
H -1.121974 -1.414964 -2.258200
H -3.427014 -0.745586 -2.804498
H -4.931355 -3.762229 -0.114176
H -2.607199 -4.423348 0.424485
H -5.936878 -1.481264 -2.865213
H -6.473566 -2.611935 -1.723846
H -5.692596 0.864379 -2.305779
H -7.160548 1.669812 -0.976751
H -4.575642 2.635945 -0.614953
H -3.737826 0.605253 -0.575317
H -6.942029 2.099484 1.303964
H -5.482453 3.090193 1.559183
H -5.995256 1.940570 2.804721
H -5.789954 -0.459479 2.458087
H -4.286667 -1.190385 1.121467
H -7.904501 -0.040648 0.802537
H -6.857610 -1.937889 0.626481
H 6.491039 -1.823379 1.885425
H 6.942347 -2.288789 0.234434
H 6.599180 -3.525557 1.442450
