68

C -0.334346 4.842575 -1.054716
C -1.676692 4.569838 -0.756422
C -2.104641 3.238392 -0.578826
C -1.100585 2.250573 -0.728475
N 0.184921 2.487778 -1.017542
C 0.553877 3.767832 -1.173240
C -3.530671 2.855534 -0.259565
C -4.598874 3.757929 -0.127908
C -5.844785 3.188499 0.153349
N -6.058596 1.885017 0.301191
C -4.976231 1.089455 0.165718
N -3.743617 1.532066 -0.106315
N -5.229388 -0.267169 0.328658
C -4.414690 -1.458379 0.294957
C -5.019129 -2.727608 0.548513
C -4.184646 -3.857721 0.502954
C -2.814144 -3.806650 0.221994
C -2.239593 -2.559138 -0.041022
C -3.046134 -1.410341 0.007700
N -0.857980 -2.311264 -0.326587
C 0.221959 -3.156401 -0.429775
C 1.578623 -2.539254 -0.722251
C 2.723091 -3.240144 -0.305400
C 3.997416 -2.711332 -0.525462
C 4.182418 -1.499886 -1.218980
C 3.028115 -0.801375 -1.617052
C 1.750406 -1.320030 -1.400560
C 5.560279 -0.853170 -1.339651
N 6.067965 0.081967 -0.323644
C 6.335453 -0.430604 1.038652
C 5.193252 -0.204857 2.063403
N 4.700601 1.191833 2.133410
C 5.475467 2.115947 2.970448
C 4.375924 1.654781 0.764417
C 5.514311 1.453235 -0.268544
O 0.122572 -4.362929 -0.267752
C -6.494938 -2.904991 0.862601
H 0.015579 5.861425 -1.192433
H -2.361626 5.409108 -0.665584
H -1.351782 1.204141 -0.614002
H 1.604397 3.934771 -1.405566
H -4.507040 4.831114 -0.241252
H -6.725392 3.820680 0.264122
H -6.210071 -0.399718 0.524759
H -4.610217 -4.841127 0.700052
H -2.203756 -4.701450 0.206785
H -2.609183 -0.444840 -0.180191
H -0.628884 -1.328716 -0.359136
H 2.593085 -4.184160 0.218121
H 4.860681 -3.257648 -0.146400
H 3.120067 0.169378 -2.104181
H 0.883616 -0.759215 -1.741374
H 6.303752 -1.657197 -1.441912
H 5.673119 -0.344558 -2.307659
H 6.644779 -1.515015 0.996961
H 7.563787 0.368857 1.597351
H 5.491897 -0.550843 3.098227
H 4.026966 -1.055516 1.620533
H 6.480093 2.271657 2.561066
H 5.567703 1.716432 3.987019
H 4.965841 3.083968 3.036478
H 4.053430 3.031536 0.810758
H 3.273370 0.979379 0.357186
H 6.690332 2.393923 0.227424
H 5.251387 1.788431 -1.229874
H -7.126855 -2.535783 0.042468
H -6.780730 -2.358150 1.772235
H -6.776072 -3.954284 1.026671
