68

C 2.217605 4.711244 -0.405099
C 3.236256 3.808983 -0.740867
C 3.069819 2.432811 -0.486754
C 1.838786 2.061276 0.105457
N 0.853410 2.906569 0.429876
C 1.048122 4.209344 0.177220
C 4.101446 1.387447 -0.828219
C 5.332269 1.638380 -1.456483
C 6.124921 0.514481 -1.711005
N 5.784181 -0.730816 -1.394204
C 4.590583 -0.875428 -0.780847
N 3.758839 0.127523 -0.490346
N 4.256740 -2.176355 -0.454965
C 3.111343 -2.789815 0.162065
C 2.916529 -4.195315 -0.005032
C 1.830558 -4.779427 0.665735
C 0.970007 -4.074621 1.513249
C 1.190853 -2.704652 1.687193
C 2.277428 -2.088194 1.044177
N 0.429535 -1.887788 2.565130
C -0.929720 -1.762284 2.686183
C -1.723675 -1.463632 1.432833
C -1.236685 -0.652323 0.396418
C -2.029350 -0.377993 -0.719633
C -3.323442 -0.915840 -0.850616
C -3.818736 -1.682701 0.221408
C -3.035778 -1.956556 1.345001
C -4.231394 -0.503935 -2.006655
N -5.070286 0.702457 -1.946303
C -4.420725 2.029833 -2.009631
C -4.175282 2.721282 -0.643823
N -5.372837 2.780739 0.227846
C -6.315355 3.876747 -0.031152
C -5.957674 1.423640 0.343929
C -6.219652 0.724067 -1.015057
O -1.496811 -1.923447 3.752954
C 3.807706 -5.067884 -0.873170
H 2.323983 5.775675 -0.592448
H 4.141508 4.203471 -1.195675
H 1.640914 1.016109 0.315952
H 0.230164 4.873746 0.451345
H 5.672775 2.622146 -1.755416
H 7.090437 0.623098 -2.204478
H 4.974617 -2.803515 -0.785992
H 1.650570 -5.848274 0.557175
H 0.167025 -4.575449 2.041874
H 2.485166 -1.042300 1.220408
H 1.003022 -1.236423 3.081286
H -0.248508 -0.213764 0.484132
H -1.633497 0.283595 -1.490118
H -4.841449 -2.058224 0.195048
H -3.430567 -2.537639 2.174899
H -3.643306 -0.430900 -2.932532
H -4.897332 -1.342989 -2.254840
H -3.399416 1.967365 -2.645245
H -5.394596 2.979710 -2.793149
H -3.763949 3.717898 -0.764189
H -3.156115 1.911417 0.082779
H -6.785919 3.766406 -1.014528
H -5.793788 4.840022 0.004756
H -7.098448 3.890235 0.735489
H -6.900543 1.471897 0.973380
H -4.963728 0.587457 1.089692
H -7.355107 1.563485 -1.706113
H -6.631685 -0.330365 -0.865920
H 4.814415 -5.165063 -0.442499
H 3.920319 -4.650604 -1.883818
H 3.418237 -6.087407 -1.000020
