68

C -1.835002 5.051717 0.031026
C -3.104115 4.543751 -0.278038
C -3.363791 3.167250 -0.130952
C -2.290925 2.385589 0.364161
N -1.072413 2.852012 0.667446
C -0.856010 4.165514 0.494997
C -4.686915 2.520923 -0.456308
C -5.869334 3.205000 -0.782555
C -6.992286 2.402311 -1.018301
N -6.990247 1.071872 -0.962972
C -5.807703 0.497643 -0.662275
N -4.686777 1.176372 -0.413061
N -5.808230 -0.885468 -0.620048
C -4.815661 -1.861349 -0.240436
C -5.223850 -3.189100 0.090181
C -4.219926 -4.095506 0.470241
C -2.860115 -3.771866 0.541190
C -2.467515 -2.471271 0.206502
C -3.450060 -1.550633 -0.191962
N -1.123105 -1.965061 0.208572
C 0.052220 -2.458462 0.744139
C 1.247540 -1.526210 0.646623
C 1.191526 -0.128178 0.767238
C 2.351599 0.640347 0.640531
C 3.613660 0.064675 0.373356
C 3.655043 -1.344574 0.335913
C 2.502656 -2.125392 0.456993
C 4.831818 1.008059 0.397110
N 6.045930 0.340637 -0.138516
C 7.007036 1.243075 -0.822564
C 8.258887 0.541537 -1.412354
N 9.036797 -0.249777 -0.430078
C 9.994593 0.502151 0.390160
C 8.095812 -1.125932 0.307580
C 6.843129 -0.408041 0.875867
O 0.043834 -3.650837 1.010222
C -6.672319 -3.647248 0.062054
H -1.607971 6.107229 -0.086478
H -3.861854 5.228714 -0.650902
H -2.426874 1.324630 0.549978
H 0.144730 4.511329 0.749705
H -5.960686 4.282941 -0.834523
H -7.963062 2.831500 -1.264770
H -6.744092 -1.222145 -0.789343
H -4.500312 -5.114751 0.732570
H -2.119156 -4.500676 0.842109
H -3.149607 -0.558933 -0.485918
H -1.015557 -1.022991 -0.138370
H 0.242520 0.362577 0.972778
H 2.260085 1.719762 0.767743
H 4.593508 -1.866421 0.168345
H 2.560808 -3.209939 0.396921
H 4.453909 1.648332 -0.418785
H 5.257965 1.618297 1.198554
H 6.266082 1.926320 -2.017141
H 7.448721 2.352731 0.155814
H 8.931548 1.269249 -1.928552
H 7.774492 -0.419218 -2.443557
H 9.472272 1.218251 1.033145
H 10.698390 1.046305 -0.250705
H 10.578201 -0.181953 1.017161
H 8.790141 -1.759502 1.347412
H 7.636081 -2.177326 -0.642057
H 7.324966 0.602082 1.973304
H 6.174719 -1.174310 1.421793
H -7.127432 -3.553410 -0.934250
H -7.283428 -3.059635 0.753017
H -6.789083 -4.694035 0.354581
