68

C -0.156824 4.500300 -1.244537
C 1.177100 4.392563 -0.827092
C 1.757383 3.121615 -0.644211
C 0.918468 2.017543 -0.936962
N -0.354912 2.097568 -1.343791
C -0.878097 3.324977 -1.483611
C 3.179810 2.910358 -0.184312
C 4.129984 3.920272 0.034835
C 5.398989 3.482978 0.431414
N 5.732533 2.209125 0.620377
C 4.750482 1.307202 0.411738
N 3.511977 1.621291 0.020532
N 5.096971 -0.019667 0.629810
C 4.389891 -1.266090 0.455087
C 5.116650 -2.494503 0.422655
C 4.375972 -3.673413 0.227065
C 2.985346 -3.706882 0.065181
C 2.285809 -2.497615 0.123786
C 2.997663 -1.303638 0.317641
N 0.873872 -2.329316 -0.027216
C -0.117540 -3.205933 -0.399660
C -1.473646 -2.603463 -0.715034
C -1.622245 -1.352113 -1.337301
C -2.891914 -0.818835 -1.561075
C -4.055215 -1.512961 -1.181711
C -3.893701 -2.781541 -0.591399
C -2.626586 -3.329234 -0.375285
C -5.436526 -0.879029 -1.349133
N -5.914024 0.046993 -0.304801
C -5.338259 1.409536 -0.236878
C -4.155085 1.567580 0.752934
N -4.447939 1.095857 2.126642
C -5.172097 2.026205 3.000892
C -4.972554 -0.289725 2.056174
C -6.146594 -0.481533 1.059662
O 0.056933 -4.412688 -0.460582
C 6.626958 -2.574249 0.562261
H -0.626371 5.469950 -1.380052
H 1.732058 5.307425 -0.635020
H 1.309689 1.009138 -0.861791
H -1.916053 3.365396 -1.810613
H 3.938603 4.976358 -0.109895
H 6.197174 4.204060 0.605666
H 6.072039 -0.077088 0.883302
H 4.899342 -4.627678 0.182824
H 2.452672 -4.636208 -0.097184
H 2.463309 -0.369104 0.364888
H 0.559196 -1.376913 0.095619
H -0.742504 -0.780086 -1.622127
H -2.964893 0.169233 -2.015326
H -4.768201 -3.349962 -0.275318
H -2.509119 -4.303138 0.092812
H -5.460522 -0.330843 -2.301953
H -6.183017 -1.682577 -1.427353
H -5.113718 1.766808 -1.195645
H -6.480382 2.350466 0.331925
H -3.820225 3.015045 0.812698
H -3.194565 0.991047 0.366658
H -6.187361 2.207106 2.630566
H -4.640479 2.982710 3.058263
H -5.235636 1.617743 4.015933
H -5.257619 -0.643736 3.106520
H -3.843515 -1.152431 1.584514
H -7.347789 0.339549 1.672183
H -6.477980 -1.558707 1.013708
H 6.958034 -2.212402 1.545961
H 7.133912 -1.967090 -0.201124
H 7.013796 -3.597287 0.456708
