68

C -0.165226 4.501243 -1.232627
C 1.170395 4.392111 -0.820863
C 1.750032 3.120484 -0.639744
C 0.908578 2.017274 -0.928553
N -0.366379 2.098592 -1.330267
C -0.888486 3.326542 -1.468653
C 3.174070 2.908259 -0.184939
C 4.123756 3.918879 0.033454
C 5.393429 3.482156 0.428337
N 5.727957 2.208486 0.616421
C 4.746815 1.305775 0.407287
N 3.507516 1.618981 0.017571
N 5.095412 -0.020313 0.626994
C 4.390988 -1.268391 0.453628
C 5.120046 -2.495547 0.421218
C 4.380920 -3.675772 0.226503
C 2.990031 -3.711654 0.065987
C 2.288676 -2.503460 0.124195
C 2.998786 -1.308322 0.317438
N 0.876364 -2.336698 -0.025726
C -0.115734 -3.212892 -0.397603
C -1.471994 -2.609569 -0.712728
C -1.618732 -1.358051 -1.335339
C -2.887677 -0.823557 -1.560703
C -4.052479 -1.514866 -1.180969
C -3.892880 -2.783257 -0.589538
C -2.626514 -3.333167 -0.373209
C -5.432133 -0.877552 -1.349670
N -5.910217 0.051244 -0.308184
C -5.333410 1.413512 -0.240789
C -4.152674 1.573245 0.751466
N -4.447978 1.101753 2.124678
C -5.169171 2.034048 2.999173
C -4.974860 -0.283154 2.056271
C -6.146031 -0.474546 1.056394
O 0.058502 -4.419665 -0.458336
C 6.630840 -2.572546 0.559517
H -0.634106 5.471354 -1.368208
H 1.727330 5.306589 -0.632142
H 1.299046 1.008514 -0.853407
H -1.927542 3.367347 -1.791260
H 3.930391 4.975135 -0.108301
H 6.191174 4.203478 0.602996
H 6.071018 -0.077481 0.878277
H 4.906263 -4.629114 0.181394
H 2.458597 -4.641680 -0.096153
H 2.463641 -0.374159 0.363801
H 0.561232 -1.384450 0.096044
H -0.737887 -0.787574 -1.620680
H -2.958791 0.164556 -2.014798
H -4.768143 -3.351110 -0.274440
H -2.510617 -4.307795 0.094104
H -5.453864 -0.330371 -2.303222
H -6.180003 -1.680015 -1.427354
H -5.108005 1.769738 -1.198410
H -6.479516 2.359463 0.328053
H -3.819951 3.013498 0.811000
H -3.184715 0.991920 0.364259
H -6.183101 2.219050 2.627020
H -4.633314 2.988200 3.058200
H -5.235751 1.624537 4.013770
H -5.247218 -0.625445 3.073179
H -3.847858 -1.145652 1.585119
H -7.349741 0.343948 1.663411
H -6.478618 -1.565819 1.010148
H 6.963756 -2.202866 1.539659
H 7.135778 -1.971369 -0.209823
H 7.018883 -3.595716 0.461110
