68

C 2.736248 5.467975 -3.694472
C 2.704483 5.053324 -2.357137
C 3.142168 3.759745 -2.009647
C 3.595868 2.950731 -3.080604
N 3.632742 3.331888 -4.364700
C 3.208914 4.570186 -4.657066
C 3.146251 3.228846 -0.598438
C 2.716314 3.947677 0.532348
C 2.812261 3.281946 1.760616
N 3.267866 2.040263 1.902560
C 3.636953 1.429412 0.762282
N 3.603222 1.970243 -0.453400
N 4.132056 0.169478 0.914984
C 3.544339 -1.101207 0.633950
C 4.377933 -2.255279 0.539828
C 3.747593 -3.478853 0.266601
C 2.367779 -3.619469 0.085142
C 1.559620 -2.478925 0.166589
C 2.161376 -1.239098 0.448327
N 0.129336 -2.455258 0.014262
C -0.768792 -3.394219 -0.470843
C -2.171631 -2.829263 -0.602139
C -2.483001 -1.577873 -1.151758
C -3.807974 -1.136831 -1.187462
C -4.910359 -1.947215 -0.831473
C -4.540435 -3.156589 -0.186899
C -3.226841 -3.628967 -0.142303
C -6.255923 -1.206481 -0.549036
N -6.125707 -0.517458 0.776833
C -5.804183 0.937239 0.750565
C -4.326401 1.370895 0.947964
N -3.695188 0.803429 2.164875
C -3.972148 1.495438 3.429490
C -3.912251 -0.665702 2.154732
C -5.393482 -1.087926 1.943552
O -0.345381 -4.538049 -0.444170
C 5.886795 -2.210920 0.713005
H 2.404216 6.460230 -3.985186
H 2.338742 5.752229 -1.609240
H 3.947213 1.941226 -2.885857
H 3.254794 4.843232 -5.710141
H 2.332070 4.959924 0.506170
H 2.515156 3.754943 2.695941
H 5.099999 0.212829 1.196510
H 4.352674 -4.381295 0.188027
H 1.925531 -4.586474 -0.113035
H 1.551024 -0.350072 0.535270
H -0.296787 -1.552148 0.166521
H -1.683501 -0.944610 -1.528602
H -3.996960 -0.134837 -1.571624
H -5.308848 -3.765095 0.291628
H -2.998804 -4.596656 0.298550
H -6.854096 -0.534911 -1.167362
H -6.612514 -2.242294 -0.645775
H -6.330903 1.561601 -0.534759
H -6.623874 1.578603 1.908897
H -4.270191 2.742108 1.017477
H -3.795215 1.115571 0.198727
H -5.036152 1.433645 3.677871
H -3.684882 2.550716 3.356645
H -3.389656 1.048665 4.243445
H -3.456236 -1.207218 3.448646
H -3.308430 -1.067963 1.447370
H -6.166471 -0.574735 3.216059
H -5.498872 -2.085701 1.968983
H 6.189636 -1.861704 1.710559
H 6.345225 -1.539698 -0.018475
H 6.355445 -3.188654 0.574608
