68

C 0.008365 4.782398 -0.374366
C 1.387413 4.547976 -0.464501
C 1.919437 3.306844 -0.060933
C 0.981364 2.369570 0.438037
N -0.337741 2.574687 0.529522
C -0.809518 3.763231 0.126254
C 3.384726 2.958164 -0.149422
C 4.401835 3.814343 -0.601391
C 5.687143 3.262765 -0.641478
N 5.982010 2.016413 -0.283955
C 4.948179 1.274915 0.164941
N 3.681283 1.695107 0.214420
N 5.248665 -0.047532 0.428658
C 4.507658 -1.275714 0.286015
C 5.201035 -2.521511 0.366791
C 4.432515 -3.691856 0.251400
C 3.040758 -3.700202 0.103509
C 2.368781 -2.473437 0.083357
C 3.111016 -1.284717 0.176644
N 0.952566 -2.296729 -0.042534
C -0.046344 -3.191714 -0.347010
C -1.419510 -2.634963 -0.669085
C -1.617085 -1.437801 -1.376701
C -2.908717 -0.974548 -1.637227
C -4.045271 -1.709715 -1.252076
C -3.831200 -2.883956 -0.504372
C -2.544243 -3.359239 -0.242145
C -5.447425 -1.133757 -1.437971
N -6.029851 -0.162844 -0.499080
C -5.588542 1.248821 -0.553027
C -4.496601 1.641780 0.474888
N -4.804841 1.264185 1.872972
C -5.687189 2.172990 2.615123
C -5.155942 -0.175418 1.912237
C -6.256526 -0.586773 0.900662
O 0.132458 -4.398873 -0.316253
C 6.705914 -2.633768 0.542931
H -0.422973 5.729401 -0.684813
H 2.018329 5.338961 -0.862214
H 1.317302 1.403486 0.799856
H -1.885557 3.900405 0.215704
H 4.238516 4.835626 -0.922279
H 6.529241 3.856748 -0.995412
H 6.213578 -0.126001 0.713671
H 4.930535 -4.659982 0.288049
H 2.485922 -4.627236 0.024908
H 2.599763 -0.335521 0.162853
H 0.639033 -1.337627 0.012875
H -0.755508 -0.867253 -1.714740
H -3.028181 -0.028111 -2.164777
H -4.681550 -3.450070 -0.125327
H -2.390349 -4.281877 0.311680
H -5.575796 -0.693879 -2.437164
H -6.139792 -1.986915 -1.493031
H -5.332394 1.523825 -1.537994
H -6.855090 2.128864 -0.156388
H -4.302955 3.014643 0.410525
H -3.285712 1.009088 0.128637
H -6.691733 2.191414 2.177586
H -5.278274 3.189857 2.605016
H -5.764707 1.853263 3.660593
H -5.407390 -0.459539 2.924846
H -3.886452 -0.950727 1.518247
H -7.560461 0.108310 1.385882
H -6.452678 -1.790404 0.950965
H 7.018701 -2.282591 1.536537
H 7.246459 -2.036075 -0.204633
H 7.073043 -3.664382 0.441613
