68

C -7.727092 -3.998070 0.514824
C -6.658579 -3.409285 -0.173923
C -6.311352 -2.066618 0.077483
C -7.098917 -1.394486 1.044962
N -8.123192 -1.942819 1.711968
C -8.425352 -3.221754 1.445830
C -5.176877 -1.357237 -0.617877
C -4.333207 -1.929466 -1.585224
C -3.339275 -1.090759 -2.100468
N -3.155845 0.173106 -1.729690
C -4.017610 0.636579 -0.801456
N -5.001110 -0.074074 -0.247620
N -3.845647 1.945003 -0.415002
C -2.687918 2.771398 -0.186823
C -2.882422 4.141167 0.168712
C -1.732739 4.913595 0.396598
C -0.429513 4.417448 0.292628
C -0.253062 3.075353 -0.062347
C -1.382643 2.271342 -0.297572
N 1.013994 2.424832 -0.231446
C 2.290582 2.860172 0.041216
C 3.449444 1.934066 -0.273364
C 3.440858 1.013660 -1.334318
C 4.550343 0.199687 -1.575000
C 5.710050 0.285046 -0.781533
C 5.707940 1.216886 0.273915
C 4.605384 2.038498 0.518298
C 6.916230 -0.620884 -1.036555
N 6.969632 -1.947561 -0.396953
C 6.064978 -3.012906 -0.885427
C 4.737361 -3.145335 -0.095861
N 4.906882 -3.284100 1.368847
C 5.216832 -4.627320 1.870950
C 5.773905 -2.182953 1.849583
C 7.108491 -2.023080 1.075839
O 2.515834 3.951638 0.539391
C -4.249321 4.787489 0.319715
H -8.011650 -5.030845 0.336664
H -6.118751 -4.016240 -0.896302
H -6.882877 -0.358536 1.289895
H -9.262069 -3.637956 2.004929
H -4.416302 -2.951048 -1.934587
H -2.645537 -1.461705 -2.854447
H -4.748481 2.383646 -0.310138
H -1.841066 5.961541 0.673591
H 0.427724 5.053123 0.476256
H -1.258466 1.237260 -0.588010
H 0.945371 1.451638 -0.492968
H 2.568298 0.947164 -1.979436
H 4.511012 -0.507139 -2.404040
H 6.582877 1.315530 0.915983
H 4.619186 2.765858 1.326047
H 7.003442 -0.785710 -2.120507
H 7.823329 -0.082632 -0.724411
H 5.912293 -2.927500 -1.927054
H 6.819358 -4.386330 -0.657499
H 4.032945 -4.350867 -0.607952
H 4.005656 -2.144849 -0.304211
H 6.198097 -4.963941 1.517800
H 4.456396 -5.341285 1.534527
H 5.216426 -4.630247 2.966943
H 6.050395 -2.375919 3.184509
H 5.022025 -0.961631 1.717444
H 7.926450 -3.343164 1.389114
H 7.697642 -1.203242 1.444950
H -4.858252 4.269045 1.073790
H -4.808236 4.770296 -0.626539
H -4.194884 5.839173 0.632857
