68

C -6.293386 -4.353102 0.953143
C -5.681609 -3.557701 -0.024791
C -5.458872 -2.187481 0.218916
C -5.888591 -1.705034 1.480273
N -6.475168 -2.451946 2.425054
C -6.669854 -3.751254 2.158504
C -4.802827 -1.261525 -0.773919
C -4.336554 -1.631601 -2.047988
C -3.752114 -0.610689 -2.806543
N -3.614171 0.645551 -2.392639
C -4.095175 0.901339 -1.160872
N -4.672111 0.011742 -0.355126
N -3.959759 2.192167 -0.734858
C -2.801403 2.980818 -0.429683
C -2.971043 4.345790 -0.048358
C -1.809710 5.074169 0.252754
C -0.519609 4.536461 0.200097
C -0.368719 3.197491 -0.178814
C -1.510211 2.437803 -0.492844
N 0.884053 2.508912 -0.297384
C 2.157730 2.894823 0.054034
C 3.300678 1.937321 -0.222404
C 3.318661 1.043324 -1.305571
C 4.408303 0.192216 -1.503809
C 5.519939 0.209847 -0.640583
C 5.496322 1.122218 0.431546
C 4.415092 1.983154 0.632019
C 6.697228 -0.746416 -0.839757
N 6.646847 -2.083955 -0.222803
C 5.724817 -3.095055 -0.787454
C 4.346118 -3.176066 -0.083849
N 4.418632 -3.350245 1.384918
C 4.630226 -4.716908 1.876595
C 5.304772 -2.302717 1.946177
C 6.688707 -2.189404 1.254134
O 2.390749 3.965764 0.591465
C -4.325520 5.026131 0.053238
H -6.473037 -5.411178 0.787604
H -5.389715 -4.029054 -0.960078
H -5.745331 -0.658374 1.733028
H -7.146800 -4.330151 2.947518
H -4.408430 -2.633764 -2.452192
H -3.367302 -0.817926 -3.804555
H -4.865927 2.631911 -0.668662
H -1.898123 6.117517 0.552969
H 0.347809 5.137638 0.443731
H -1.410240 1.404943 -0.798495
H 0.799281 1.545046 -0.586949
H 2.481356 1.024387 -1.998646
H 4.388218 -0.496348 -2.348523
H 6.336124 1.170360 1.124571
H 4.410962 2.691657 1.456647
H 6.844735 -0.897899 -1.919095
H 7.606960 -0.256826 -0.462607
H 5.641662 -2.983723 -1.828756
H 6.395651 -4.504236 -0.544583
H 3.620763 -4.315098 -0.656096
H 3.671287 -2.118096 -0.317477
H 5.617187 -5.092838 1.584210
H 3.863060 -5.387741 1.473391
H 4.553758 -4.740648 2.969716
H 5.444186 -2.492495 3.157200
H 4.610901 -1.020388 1.773417
H 7.433543 -3.545222 1.593959
H 7.293147 -1.386814 1.678976
H -4.971303 4.524809 0.788108
H -4.852023 5.017896 -0.911634
H -4.255851 6.077711 0.363927
