68

C -0.175041 4.508968 -1.180513
C 1.158821 4.397457 -0.763655
C 1.738769 3.125010 -0.589348
C 0.898828 2.023323 -0.888138
N -0.374629 2.106825 -1.294243
C -0.896842 3.335431 -1.426977
C 3.161808 2.911391 -0.132028
C 4.109474 3.921979 0.095216
C 5.379036 3.485085 0.490263
N 5.715329 2.210836 0.670421
C 4.736150 1.308017 0.452876
N 3.497054 1.621394 0.062456
N 5.087096 -0.018582 0.664273
C 4.385844 -1.266320 0.481054
C 5.117507 -2.491682 0.441801
C 4.381312 -3.672378 0.239101
C 2.990618 -3.710128 0.077151
C 2.286927 -2.503544 0.141042
C 2.994190 -1.307949 0.341421
N 0.874996 -2.338089 -0.010262
C -0.115474 -3.213547 -0.387671
C -1.470769 -2.607253 -0.699594
C -1.613832 -1.355637 -1.322623
C -2.881255 -0.819810 -1.552393
C -4.048096 -1.511806 -1.180143
C -3.891947 -2.781955 -0.591518
C -2.626851 -3.333013 -0.370777
C -5.426119 -0.872416 -1.354392
N -5.908376 0.054115 -0.312839
C -5.329825 1.415387 -0.239162
C -4.152205 1.569069 0.757935
N -4.454405 1.095108 2.128808
C -5.180042 2.027000 2.999891
C -4.984223 -0.288529 2.054243
C -6.151972 -0.474421 1.049174
O 0.059136 -4.419903 -0.454509
C 6.628239 -2.565337 0.582395
H -0.643707 5.479857 -1.312025
H 1.714665 5.310846 -0.566803
H 1.289184 1.014163 -0.818783
H -1.934524 3.378075 -1.754246
H 3.915025 4.978650 -0.041274
H 6.175599 4.206116 0.671431
H 6.062217 -0.075228 0.917369
H 4.908646 -4.624250 0.188887
H 2.460721 -4.640081 -0.090706
H 2.457214 -0.375015 0.392213
H 0.559322 -1.386724 0.117283
H -0.731627 -0.785843 -1.604324
H -2.949872 0.169180 -2.005203
H -4.769181 -3.350199 -0.282660
H -2.513731 -4.309654 0.092930
H -5.442096 -0.322741 -2.306515
H -6.174473 -1.673702 -1.438168
H -5.102282 1.774740 -1.192710
H -6.472476 2.357579 0.328035
H -3.818071 3.024325 0.823406
H -3.188696 0.992937 0.376742
H -6.191137 2.213842 2.621196
H -4.643386 2.980446 3.064000
H -5.254087 1.615667 4.013164
H -5.259651 -0.633111 3.067888
H -3.856973 -1.152511 1.583707
H -7.353895 0.341576 1.649929
H -6.486804 -1.568214 0.998595
H 6.957450 -2.200126 1.565515
H 7.133018 -1.957537 -0.181793
H 7.019776 -3.586761 0.479284
