68

C -7.858743 2.782362 -2.162738
C -7.454748 2.526828 -0.845654
C -6.432883 1.590032 -0.590200
C -5.870426 0.961080 -1.729212
N -6.245672 1.194617 -2.993825
C -7.223387 2.088846 -3.198145
C -5.937332 1.258281 0.794723
C -6.402903 1.839051 1.986835
C -5.792514 1.388970 3.162959
N -4.830307 0.472042 3.207265
C -4.453186 -0.030340 2.013977
N -4.967496 0.325038 0.837451
N -3.460769 -0.980736 2.071083
C -2.740810 -1.660481 1.042555
C -3.419906 -2.472885 0.086594
C -2.632884 -3.094362 -0.895881
C -1.244165 -2.952248 -0.985831
C -0.593144 -2.154472 -0.038078
C -1.347764 -1.530000 0.971415
N 0.817145 -1.902762 0.007451
C 1.837457 -2.331389 -0.811120
C 3.257451 -1.932690 -0.455319
C 3.693232 -1.686617 0.857250
C 5.015520 -1.312896 1.106529
C 5.951759 -1.186558 0.063279
C 5.513462 -1.476878 -1.242536
C 4.194769 -1.857900 -1.499704
C 7.388159 -0.739150 0.338350
N 7.702280 0.700905 0.319794
C 7.214499 1.550245 1.429904
C 5.873433 2.274772 1.148102
N 5.849729 3.054572 -0.110111
C 6.443301 4.395926 -0.062423
C 6.288567 2.177946 -1.221838
C 7.625352 1.433524 -0.965258
O 1.635574 -3.003903 -1.809739
C -4.915529 -2.742827 0.097017
H -8.644247 3.499322 -2.382999
H -7.952212 3.066824 -0.043779
H -5.070071 0.236193 -1.607479
H -7.504563 2.255047 -4.236771
H -7.176512 2.595879 2.032039
H -6.094967 1.794040 4.128252
H -3.033433 -1.110080 2.977426
H -3.114536 -3.727303 -1.640335
H -0.679727 -3.443196 -1.768980
H -0.873228 -0.900246 1.711708
H 1.092617 -1.235950 0.714105
H 2.995434 -1.788585 1.684385
H 5.317352 -1.109823 2.134048
H 6.206890 -1.401112 -2.079824
H 3.865498 -2.079084 -2.511823
H 7.690900 -1.121651 1.323999
H 8.046735 -1.219953 -0.399775
H 7.199744 1.008501 2.339653
H 8.277256 2.706817 1.615937
H 5.608801 3.184218 2.270266
H 4.889115 1.387382 1.090233
H 7.521943 4.343114 0.123730
H 5.976025 4.988275 0.732573
H 6.274512 4.917278 -1.011777
H 6.357245 2.835472 -2.252160
H 5.249567 1.179330 -1.408199
H 8.725401 2.568626 -0.909863
H 7.895083 0.776802 -1.799170
H -5.463892 -1.990166 -0.484699
H -5.332719 -2.739104 1.113024
H -5.166105 -3.723129 -0.332096
