68

C -1.432578 5.117075 -0.651073
C -2.714340 4.553098 -0.695426
C -2.888476 3.179634 -0.434410
C -1.712012 2.457757 -0.115433
N -0.480061 2.980664 -0.061770
C -0.351170 4.288367 -0.332796
C -4.227716 2.486336 -0.454483
C -5.467782 3.133080 -0.588715
C -6.597010 2.308866 -0.525131
N -6.552949 0.988945 -0.361419
C -5.321142 0.448520 -0.264504
N -4.186046 1.148359 -0.309804
N -5.294861 -0.925104 -0.106479
C -4.240363 -1.874558 0.143406
C -4.568042 -3.157880 0.677588
C -3.505587 -4.041505 0.928564
C -2.162875 -3.739882 0.675928
C -1.852474 -2.486791 0.136211
C -2.896182 -1.584485 -0.128159
N -0.541287 -2.026701 -0.218555
C 0.718070 -2.475397 0.140420
C 1.803728 -1.532131 -0.335555
C 2.656237 -1.936519 -1.369992
C 3.625230 -1.058303 -1.860862
C 3.701205 0.304292 -1.471702
C 2.942945 0.605809 -0.316729
C 1.978893 -0.255276 0.213295
C 4.950063 1.199442 -1.738476
N 6.027010 0.806305 -0.777760
C 6.322323 -0.606498 -0.408744
C 5.689333 -1.165448 0.896851
N 5.928118 -0.323681 2.096133
C 7.228276 -0.479675 2.759270
C 5.509623 1.060657 1.771562
C 6.150151 1.611800 0.469148
O 0.778144 -3.623205 0.549162
C -5.988722 -3.591058 0.999297
H -1.274724 6.171859 -0.855920
H -3.554419 5.195259 -0.948204
H -1.768005 1.402825 0.134313
H 0.664121 4.678690 -0.283100
H -5.593909 4.202440 -0.704095
H -7.607009 2.710690 -0.601341
H -6.242093 -1.267444 -0.048933
H -3.722107 -5.025159 1.343376
H -1.374996 -4.453920 0.877344
H -2.667222 -0.628704 -0.571941
H -0.483736 -1.128704 -0.679288
H 2.566103 -2.946652 -1.761651
H 4.320031 -1.443438 -2.608219
H 3.050108 1.587208 0.144176
H 1.345347 0.063391 1.037564
H 4.829375 0.747224 -2.734134
H 5.020029 2.285734 -1.826382
H 6.155527 -1.206318 -1.176610
H 7.879756 -0.666388 -0.186466
H 6.232531 -2.479190 1.151291
H 4.591378 -1.295906 0.786801
H 8.039852 -0.161069 2.097845
H 7.387434 -1.527116 3.039972
H 7.261418 0.118522 3.677114
H 5.833491 1.864684 2.798841
H 4.532446 1.068596 1.711319
H 7.682591 1.753052 0.741127
H 5.634127 3.013379 0.229641
H -6.642571 -3.590302 0.115452
H -6.444364 -2.926113 1.738372
H -6.038079 -4.600542 1.415460
