68

C -0.169014 4.496905 -1.227096
C 1.165819 4.389094 -0.812393
C 1.755669 3.118424 -0.659948
C 0.924776 2.015050 -0.977553
N -0.349477 2.095319 -1.382046
C -0.881182 3.322002 -1.494339
C 3.177036 2.906964 -0.196980
C 4.117103 3.918809 0.055114
C 5.382217 3.482424 0.465260
N 5.720222 2.207649 0.639528
C 4.748284 1.303745 0.395973
N 3.515648 1.616201 -0.014640
N 5.099145 -0.023993 0.597301
C 4.398528 -1.269738 0.394983
C 5.121133 -2.501126 0.408851
C 4.380673 -3.682202 0.224888
C 2.990251 -3.716578 0.061237
C 2.291444 -2.506571 0.111377
C 3.003179 -1.311162 0.295325
N 0.879267 -2.338266 -0.027384
C -0.111623 -3.211660 -0.409668
C -1.470810 -2.610014 -0.712563
C -1.619916 -1.359458 -1.335935
C -2.889958 -0.830599 -1.566033
C -4.054779 -1.541306 -1.224424
C -3.890383 -2.785769 -0.585126
C -2.623233 -3.330812 -0.361344
C -5.421100 -0.869700 -1.336605
N -5.903468 0.047180 -0.290963
C -5.357230 1.421731 -0.235473
C -4.171230 1.607117 0.745862
N -4.441516 1.127672 2.121727
C -5.181919 2.040016 3.001378
C -4.937433 -0.268789 2.056534
C -6.118064 -0.484953 1.073418
O 0.064232 -4.418712 -0.459557
C 6.628367 -2.582524 0.577857
H -0.646360 5.465998 -1.339217
H 1.713046 5.303244 -0.595882
H 1.323808 1.007899 -0.923488
H -1.919340 3.362331 -1.820462
H 3.919473 4.976406 -0.069959
H 6.172652 4.204908 0.666644
H 6.067191 -0.087318 0.875212
H 4.902483 -4.638405 0.203987
H 2.456143 -4.647465 -0.086513
H 2.467783 -0.377444 0.351673
H 0.557671 -1.387013 0.085566
H -0.740854 -0.783703 -1.615224
H -2.963436 0.163046 -2.007738
H -4.764260 -3.342704 -0.247715
H -2.505044 -4.296629 0.123379
H -5.544509 -0.334015 -2.288094
H -6.168784 -1.667868 -1.451476
H -5.142078 1.782086 -1.208301
H -6.512148 2.342179 0.336659
H -3.863955 3.040968 0.801764
H -3.173258 1.024239 0.334848
H -6.202868 2.198119 2.635705
H -4.671827 3.008306 3.058171
H -5.231823 1.627869 4.015770
H -5.195062 -0.624986 3.094482
H -3.794171 -1.109725 1.564535
H -7.324193 0.304271 1.689284
H -6.424934 -1.557355 1.029345
H 6.939719 -2.223362 1.568753
H 7.150964 -1.974256 -0.174051
H 7.016216 -3.605675 0.477241
