68

C 0.335015 4.650266 -1.193569
C 1.627570 4.511859 -0.668598
C 2.170363 3.227547 -0.465881
C 1.341419 2.143458 -0.848336
N 0.106285 2.252915 -1.353747
C -0.382811 3.492104 -1.514486
C 3.542569 2.979642 0.111282
C 4.483009 3.963944 0.454156
C 5.699264 3.489622 0.959906
N 5.991508 2.204164 1.139947
C 5.020614 1.329704 0.803800
N 3.832866 1.679170 0.303400
N 5.319184 -0.009746 0.997948
C 4.617877 -1.225454 0.662768
C 5.326985 -2.464018 0.626040
C 4.588317 -3.616233 0.306402
C 3.209821 -3.617704 0.061818
C 2.517315 -2.407793 0.174506
C 3.227166 -1.240717 0.498286
N 1.111940 -2.219274 -0.021534
C 0.140732 -3.066499 -0.501229
C -1.232946 -2.487152 -0.786137
C -1.453104 -1.153025 -1.166995
C -2.748753 -0.683133 -1.389958
C -3.878041 -1.515027 -1.250867
C -3.631978 -2.865416 -0.920812
C -2.340871 -3.343870 -0.685273
C -5.295592 -0.982162 -1.535913
N -5.779110 0.281684 -0.934133
C -5.006282 0.990441 0.114023
C -5.330817 0.488607 1.544687
N -6.768723 0.489548 1.906823
C -7.308724 1.761156 2.404221
C -7.548577 -0.177207 0.836590
C -7.216549 0.327833 -0.590779
O 0.346384 -4.260584 -0.656994
C 6.821978 -2.577847 0.869309
H -0.106780 5.629977 -1.349335
H 2.179099 5.412953 -0.411921
H 1.709852 1.126821 -0.759985
H -1.389462 3.556191 -1.925034
H 4.321915 5.027962 0.330331
H 6.488106 4.188662 1.236628
H 6.262394 -0.112844 1.341297
H 5.101911 -4.574423 0.237358
H 2.678804 -4.527928 -0.188821
H 2.698328 -0.307075 0.606713
H 0.787083 -1.279490 0.155703
H -0.608751 -0.480024 -1.299637
H -2.862299 0.349781 -1.717777
H -4.459311 -3.570393 -0.838524
H -2.169937 -4.385529 -0.424816
H -5.534816 -0.941137 -2.606399
H -5.801407 -1.821528 -1.031978
H -4.176618 0.999270 -0.069168
H -5.460754 2.502079 0.089570
H -4.618914 1.305261 2.483903
H -4.818873 -0.954526 1.650478
H -7.290178 2.528863 1.622063
H -6.722015 2.113149 3.260335
H -8.343381 1.625810 2.740231
H -8.577617 -0.118597 1.053919
H -7.151573 -1.671948 0.868494
H -7.687011 1.752169 -0.691223
H -7.986488 -0.478397 -1.562958
H 7.082968 -2.298123 1.899641
H 7.389956 -1.921807 0.194579
H 7.205993 -3.595325 0.712182
