68

C -7.716432 -4.005761 -0.334047
C -6.377242 -3.615849 -0.207673
C -6.051895 -2.258239 -0.013713
C -7.147795 -1.361884 0.034578
N -8.434074 -1.717840 -0.084160
C -8.704882 -3.019047 -0.264047
C -4.638830 -1.752706 0.138382
C -3.494162 -2.568245 0.114424
C -2.269866 -1.911155 0.270445
N -2.144053 -0.597766 0.434889
C -3.291980 0.109261 0.462055
N -4.507599 -0.422428 0.314189
N -3.182851 1.476491 0.637684
C -2.121852 2.447666 0.487827
C -2.419586 3.828989 0.705271
C -1.373264 4.750239 0.538222
C -0.068598 4.393056 0.184285
C 0.229019 3.035249 0.025332
C -0.810497 2.095787 0.138797
N 1.502465 2.499063 -0.370574
C 2.769445 3.056657 -0.419893
C 3.858006 2.049023 -0.743313
C 3.740303 1.028150 -1.697259
C 4.800455 0.145793 -1.918315
C 6.072558 0.292919 -1.319892
C 6.107732 1.262455 -0.284859
C 5.075212 2.175941 -0.059808
C 7.003214 -0.958195 -1.355445
N 6.498088 -1.930665 -0.334202
C 5.609341 -3.021837 -0.823282
C 4.074305 -2.847289 -0.668465
N 3.649320 -2.520110 0.714103
C 3.537385 -3.646172 1.649016
C 4.449672 -1.356730 1.175033
C 5.985768 -1.532713 1.007352
O 2.847539 4.182212 0.044790
C -3.797477 4.341825 1.091045
H -7.988760 -5.046326 -0.483584
H -5.610800 -4.384597 -0.264422
H -6.976936 -0.298895 0.177583
H -9.760711 -3.269341 -0.354942
H -3.506572 -3.643373 -0.012726
H -1.321473 -2.447898 0.261861
H -4.089637 1.848323 0.875723
H -1.574405 5.811759 0.677511
H 0.704823 5.138472 0.053951
H -0.600572 1.050955 -0.030652
H 1.532502 1.494855 -0.476062
H 2.812451 0.920179 -2.253575
H 4.643947 -0.665160 -2.629668
H 6.987224 1.328620 0.356575
H 5.177938 2.959723 0.687157
H 7.334898 -1.571191 -2.195981
H 7.746903 -0.176533 -1.142104
H 5.921690 -3.330901 -2.280391
H 6.006917 -4.289881 -0.020580
H 3.443183 -4.025494 -1.066092
H 3.746936 -2.148130 -1.251072
H 4.515084 -4.109650 1.813052
H 2.847732 -4.400932 1.253652
H 3.139859 -3.303627 2.611230
H 4.161880 -1.135976 2.590161
H 4.105104 -0.503915 0.664752
H 6.389140 -2.699313 1.975208
H 6.483240 -0.741277 1.347690
H -4.181071 3.881037 2.012418
H -4.525930 4.141491 0.300318
H -3.812330 5.421273 1.262740
