68

C 5.063362 1.329108 2.977175
C 4.801788 0.045151 2.480165
C 3.999700 -0.117479 1.332523
C 3.517777 1.078669 0.746495
N 3.758099 2.313343 1.204663
C 4.517288 2.427664 2.304466
C 3.648765 -1.462581 0.745123
C 4.098908 -2.700732 1.231804
C 3.638235 -3.827484 0.543482
N 2.818389 -3.785772 -0.501788
C 2.427684 -2.555087 -0.895716
N 2.818759 -1.416106 -0.316415
N 1.562774 -2.535967 -1.978229
C 0.926847 -1.487193 -2.733576
C 0.310017 -1.807347 -3.982492
C -0.335531 -0.764296 -4.667716
C -0.411495 0.550550 -4.194736
C 0.199617 0.842996 -2.972230
C 0.844027 -0.174054 -2.253784
N 0.206722 2.114093 -2.352910
C -0.810413 3.021192 -2.230116
C -1.698330 2.785500 -1.028600
C -1.169664 2.488005 0.237844
C -2.022231 2.234929 1.313712
C -3.421535 2.271291 1.165299
C -3.935470 2.587545 -0.107403
C -3.090872 2.854055 -1.187802
C -4.342390 1.912223 2.332119
N -4.642368 0.490240 2.581715
C -3.606622 -0.367164 3.200302
C -2.748816 -1.171521 2.189776
N -3.539965 -1.979389 1.232531
C -4.019985 -3.281995 1.708642
C -4.543646 -1.104666 0.578086
C -5.403138 -0.268478 1.562606
O -0.996029 3.937489 -3.010806
C 0.309336 -3.202288 -4.585511
H 5.672612 1.475858 3.864008
H 5.222237 -0.805361 3.010788
H 2.911137 1.034950 -0.150923
H 4.695184 3.442703 2.656264
H 4.763201 -2.816953 2.079138
H 3.945215 -4.825441 0.854663
H 1.417753 -3.479158 -2.306005
H -0.819820 -0.974160 -5.620814
H -0.920262 1.327621 -4.753761
H 1.279398 0.049899 -1.292851
H 1.101450 2.478395 -2.055804
H -0.091638 2.443642 0.371296
H -1.582842 1.986892 2.279894
H -5.012923 2.614281 -0.268497
H -3.492821 3.091795 -2.169566
H -3.910351 2.316700 3.258981
H -5.307254 2.418660 2.184393
H -3.018954 0.185446 3.884606
H -4.372861 -1.457218 4.051456
H -1.885812 -2.088364 2.979014
H -2.044656 -0.458185 1.567002
H -4.747861 -3.161620 2.518827
H -3.180078 -3.884139 2.073283
H -4.494600 -3.831486 0.887629
H -5.170106 -1.705703 -0.099742
H -3.770676 -0.125882 -0.274498
H -6.285942 -1.317760 2.337219
H -6.115946 0.414399 1.012862
H -0.266713 -3.904062 -3.965838
H 1.328442 -3.603375 -4.678974
H -0.131617 -3.235350 -5.591410
