68

C -0.544090 4.073360 -2.352256
C 0.751493 4.132932 -1.821255
C 1.393080 2.953475 -1.392453
C 0.652774 1.755744 -1.555040
N -0.582907 1.678813 -2.065754
C -1.165146 2.823672 -2.451196
C 2.782043 2.928218 -0.803529
C 3.631620 4.038584 -0.668430
C 4.887387 3.778760 -0.108329
N 5.295136 2.581204 0.301693
C 4.404849 1.578145 0.154180
N 3.188976 1.715670 -0.380505
N 4.829655 0.337234 0.593478
C 4.262268 -0.981324 0.487611
C 5.116480 -2.122678 0.568249
C 4.505586 -3.385992 0.500469
C 3.122871 -3.578954 0.403291
C 2.295495 -2.451071 0.398838
C 2.874869 -1.173182 0.459977
N 0.868042 -2.467788 0.330777
C 0.006612 -3.458838 -0.078349
C -1.444746 -3.042215 -0.136233
C -1.994871 -2.604034 -1.349742
C -3.327332 -2.190267 -1.404433
C -4.154506 -2.229500 -0.265289
C -3.584487 -2.676914 0.942106
C -2.256091 -3.104016 1.005728
C -5.571283 -1.661744 -0.296105
N -5.831521 -0.265345 0.084692
C -5.210145 0.817915 -0.708836
C -3.903577 1.403810 -0.111932
N -4.008122 1.790548 1.317302
C -4.568143 3.120272 1.587947
C -4.577127 0.660230 2.088183
C -5.903539 0.097912 1.515400
O 0.359610 -4.585661 -0.380587
C 6.628297 -2.030613 0.686739
H -1.059424 4.970691 -2.681810
H 1.228662 5.106531 -1.740766
H 1.094361 0.804434 -1.274791
H -2.169486 2.730998 -2.861589
H 3.374958 5.042038 -0.984950
H 5.609887 4.584864 0.017015
H 5.784915 0.382642 0.915749
H 5.127628 -4.279995 0.527630
H 2.692054 -4.571183 0.344869
H 2.245486 -0.295062 0.474565
H 0.426597 -1.558548 0.339445
H -1.360061 -2.558736 -2.230937
H -3.716282 -1.809106 -2.348477
H -4.184106 -2.694228 1.852218
H -1.824443 -3.450920 1.941177
H -5.954695 -1.807090 -1.316843
H -6.284936 -2.277250 0.268619
H -5.059771 0.482723 -1.792120
H -6.230838 2.010108 -0.738322
H -3.545526 2.188986 -0.652605
H -2.855020 0.299278 -0.190114
H -5.619183 3.174567 1.282012
H -4.002551 3.885460 1.043397
H -4.498415 3.349411 2.657448
H -4.842523 1.115149 3.461573
H -3.711884 -0.239306 2.138459
H -6.941065 1.277627 1.632616
H -6.289997 -0.696466 2.086017
H 6.929121 -1.620507 1.661141
H 7.055623 -1.381701 -0.090731
H 7.126176 -3.005083 0.586965
