68

C -1.074983 4.173603 -0.391849
C 0.256068 4.260182 0.036919
C 1.087246 3.124088 -0.016260
C 0.487588 1.944049 -0.521593
N -0.781913 1.841192 -0.937392
C -1.543179 2.945404 -0.871474
C 2.538915 3.126230 0.394150
C 3.277275 4.266670 0.751906
C 4.631268 4.053056 1.036292
N 5.228248 2.863963 0.994736
C 4.440057 1.821155 0.663371
N 3.141028 1.922587 0.375987
N 5.070445 0.589595 0.631329
C 4.632184 -0.736624 0.274150
C 5.601553 -1.738652 -0.034814
C 5.120899 -3.005190 -0.408183
C 3.762816 -3.335489 -0.485027
C 2.821198 -2.353090 -0.160269
C 3.275216 -1.082112 0.228362
N 1.395709 -2.517259 -0.143363
C 0.562695 -3.499143 -0.653871
C -0.908083 -3.131543 -0.551618
C -1.422789 -1.850042 -0.801941
C -2.776091 -1.579458 -0.590045
C -3.667630 -2.539389 -0.075432
C -3.166339 -3.858673 -0.025293
C -1.809767 -4.147426 -0.199792
C -5.183509 -2.407016 0.082888
N -5.606737 -1.106162 0.730013
C -6.744717 -0.381110 0.091837
C -6.391349 0.820399 -0.823393
N -5.554780 1.855620 -0.165700
C -6.259800 2.805612 0.704609
C -4.372190 1.182012 0.416249
C -4.701993 -0.062725 1.286844
O 1.111905 -4.570543 -0.858121
C 7.100003 -1.486605 -0.003585
H -1.734256 5.036062 -0.361293
H 0.619052 5.214461 0.410676
H 1.071825 1.034666 -0.623961
H -2.568114 2.837066 -1.223263
H 2.876499 5.272314 0.786825
H 5.297124 4.871870 1.307783
H 6.052307 0.713047 0.827402
H 5.835588 -3.788155 -0.658823
H 3.434538 -4.326405 -0.769769
H 2.556643 -0.331009 0.514166
H 0.876854 -1.711007 0.173610
H -0.767982 -1.064341 -1.173644
H -3.137198 -0.625164 -0.948736
H -3.837075 -4.683224 0.217767
H -1.433885 -5.159267 -0.065920
H -5.866704 -2.514501 -0.762886
H -5.999900 -2.922413 0.600299
H -7.625176 -1.402440 -0.764466
H -7.642432 0.112226 1.197332
H -7.311656 1.296036 -1.235687
H -5.563348 0.260240 -2.036763
H -6.696353 2.288556 1.564967
H -7.059369 3.309646 0.148576
H -5.568794 3.575711 1.066194
H -3.663846 2.114040 1.217331
H -3.863652 0.982770 -0.214687
H -5.465766 0.507080 2.568963
H -3.703469 -0.568255 1.719607
H 7.462124 -1.207422 0.996127
H 7.377650 -0.677310 -0.684543
H 7.681535 -2.360923 -0.307113
