68

C -0.637932 4.117039 -1.862899
C 0.526956 4.126940 -1.084006
C 1.266979 2.940901 -0.913130
C 0.768452 1.797127 -1.585096
N -0.348533 1.765565 -2.324664
C -1.032634 2.912735 -2.455962
C 2.486682 2.829418 -0.033734
C 3.054785 3.871747 0.717417
C 4.117892 3.510715 1.555520
N 4.597520 2.273640 1.671922
C 4.002883 1.342995 0.900000
N 2.992352 1.588065 0.066204
N 4.459713 0.050676 1.048066
C 3.860137 -1.221572 0.733810
C 4.672377 -2.392740 0.659384
C 4.023312 -3.608647 0.385015
C 2.651502 -3.723488 0.129553
C 1.877006 -2.558659 0.136457
C 2.485072 -1.344435 0.494387
N 0.477094 -2.459735 -0.164450
C -0.423679 -3.335043 -0.754043
C -1.750824 -2.636862 -1.005748
C -1.856302 -1.354100 -1.564839
C -3.105709 -0.755957 -1.729037
C -4.326381 -1.409539 -1.450159
C -4.166909 -2.660846 -0.798975
C -2.934273 -3.307701 -0.670698
C -5.559186 -0.473978 -1.250967
N -5.407306 0.192426 0.084909
C -4.867432 1.582557 0.082499
C -3.355631 1.793805 0.373274
N -2.899416 1.143049 1.627037
C -3.150850 1.875709 2.874039
C -3.331033 -0.277842 1.595902
C -4.842767 -0.476095 1.291486
O -0.066700 -4.500719 -0.695533
C 6.174776 -2.376667 0.882515
H -1.227180 5.018423 -2.003162
H 0.826479 5.057543 -0.608145
H 1.297824 0.849699 -1.518176
H -1.931967 2.850249 -3.067095
H 2.704664 4.896621 0.708780
H 4.619068 4.239377 2.192153
H 5.417998 0.058876 1.363410
H 4.612084 -4.524331 0.347746
H 2.194858 -4.675103 -0.107733
H 1.878171 -0.454628 0.564099
H 0.094099 -1.533177 -0.041869
H -0.960078 -0.814331 -1.862774
H -3.125729 0.257097 -2.129164
H -5.042764 -3.161938 -0.384897
H -2.866353 -4.300397 -0.231781
H -6.009769 0.277607 -1.901364
H -6.061611 -1.444446 -1.376166
H -5.208627 2.267072 -1.241430
H -5.658434 2.355999 1.188243
H -3.111743 2.964200 0.426552
H -2.819033 1.444453 -0.348431
H -4.226049 1.973903 3.052219
H -2.705363 2.876209 2.823287
H -2.695508 1.351615 3.722051
H -3.038518 -0.875664 2.905016
H -2.765515 -0.755571 0.938256
H -5.609487 0.147088 2.514700
H -5.097036 -1.453944 1.302148
H 6.450833 -2.036080 1.890727
H 6.669823 -1.711437 0.169489
H 6.629398 -3.362533 0.755144
