68

C -3.090403 -1.034406 5.994001
C -2.217325 -1.982348 6.545938
C -1.281362 -2.642060 5.724342
C -1.302455 -2.270872 4.356652
N -2.123517 -1.364790 3.808969
C -3.001939 -0.759564 4.624576
C -0.265996 -3.633327 6.242769
C -0.076008 -3.976575 7.591020
C 0.990198 -4.844758 7.851927
N 1.800046 -5.345025 6.922813
C 1.529047 -4.983507 5.651137
N 0.528360 -4.171327 5.296339
N 2.377189 -5.512750 4.685062
C 2.478357 -5.325819 3.257944
C 3.671950 -5.704904 2.572426
C 3.733559 -5.431376 1.194170
C 2.693472 -4.841168 0.464776
C 1.504588 -4.546468 1.138344
C 1.421865 -4.782938 2.519063
N 0.324780 -3.983089 0.567071
C 0.064739 -3.449084 -0.673059
C -1.253470 -2.708772 -0.804925
C -1.807808 -1.957794 0.243615
C -3.077488 -1.394900 0.116815
C -3.802613 -1.451994 -1.085320
C -3.188689 -2.136717 -2.157530
C -1.949899 -2.769754 -2.021340
C -5.206959 -0.880618 -1.308748
N -6.029964 -0.060168 -0.396683
C -5.693338 1.372084 -0.207004
C -4.879542 1.701031 1.072588
N -5.460155 1.170248 2.333926
C -6.512360 1.982460 2.955177
C -5.731329 -0.276266 2.164003
C -6.527232 -0.622449 0.882711
O 0.819142 -3.574570 -1.624787
C 4.874581 -6.318272 3.268623
H -3.813124 -0.508144 6.610475
H -2.282750 -2.180308 7.612910
H -0.584099 -2.707316 3.670919
H -3.651730 -0.014281 4.166365
H -0.666370 -3.579511 8.407709
H 1.216293 -5.142454 8.875481
H 3.097590 -6.061649 5.129889
H 4.641766 -5.676640 0.644831
H 2.777672 -4.649039 -0.598214
H 0.514580 -4.537979 3.047683
H -0.442117 -3.901411 1.219702
H -1.277108 -1.870917 1.189326
H -3.457978 -0.872774 0.983335
H -3.707274 -2.225200 -3.112584
H -1.509813 -3.327011 -2.844365
H -5.124093 -0.272684 -2.223865
H -5.851654 -1.750298 -1.514132
H -5.255419 1.776100 -1.079053
H -7.083933 2.134077 -0.008039
H -4.799918 3.179455 1.173098
H -3.728307 1.269468 0.968139
H -7.404720 2.023647 2.320638
H -6.151574 3.003421 3.124710
H -6.790818 1.560640 3.927541
H -6.587647 -0.746775 3.334214
H -4.947028 -0.720472 2.223174
H -7.969045 0.090012 1.127339
H -6.727773 -1.677817 0.788162
H 4.623668 -7.288383 3.720537
H 5.251062 -5.667564 4.070563
H 5.718438 -6.497787 2.588115
