68

C -1.613755 4.952846 0.473581
C -2.856881 4.307994 0.496876
C -2.927858 2.908085 0.352235
C -1.688642 2.240832 0.185602
N -0.489712 2.841842 0.150415
C -0.464936 4.175074 0.296476
C -4.223835 2.134978 0.334008
C -5.503950 2.716232 0.351321
C -6.581951 1.827696 0.269639
N -6.459275 0.505203 0.186989
C -5.195686 0.033664 0.188743
N -4.104453 0.795706 0.268621
N -5.086705 -1.342153 0.120550
C -3.963050 -2.235300 0.147048
C -4.133289 -3.559695 0.651810
C -3.010652 -4.402262 0.635049
C -1.743984 -4.009948 0.186330
C -1.582920 -2.702683 -0.290070
C -2.701916 -1.855671 -0.326861
N -0.328736 -2.153843 -0.720308
C 0.009027 -1.037933 -1.457353
C 1.486421 -0.730502 -1.596152
C 2.477336 -1.713774 -1.749936
C 3.824594 -1.352448 -1.824567
C 4.229422 -0.005639 -1.762067
C 3.220379 0.971722 -1.661706
C 1.870456 0.620924 -1.591093
C 5.709325 0.381708 -1.772365
N 6.445182 0.451801 -0.498131
C 6.795830 -0.807865 0.197464
C 5.771927 -1.258018 1.271754
N 5.455279 -0.214898 2.276623
C 6.404131 -0.058924 3.385052
C 5.057340 1.025602 1.567141
C 6.070195 1.491319 0.488306
O -0.819294 -0.293313 -1.956876
C -5.457013 -4.081755 1.184715
H -1.536468 6.030009 0.587489
H -3.750400 4.912276 0.633584
H -1.667910 1.164888 0.051327
H 0.525815 4.626494 0.266128
H -5.693456 3.781479 0.396930
H -7.614782 2.174877 0.263479
H -6.004680 -1.759607 0.152181
H -3.108120 -5.422590 1.004335
H -0.903462 -4.692485 0.225500
H -2.601999 -0.861511 -0.732788
H 0.436538 -2.697346 -0.347072
H 2.186471 -2.759652 -1.808631
H 4.573700 -2.139051 -1.913381
H 3.489916 2.025841 -1.608318
H 1.105620 1.386443 -1.479738
H 6.250592 -0.328400 -2.413647
H 5.802484 1.368937 -2.246482
H 6.992714 -1.661268 -0.577983
H 8.079541 -0.574128 0.884862
H 6.226411 -2.333472 1.901852
H 4.643773 -1.595086 0.698537
H 7.376298 0.293012 3.022059
H 6.544335 -1.016186 3.900380
H 6.017404 0.661283 4.115235
H 4.866746 1.952365 2.424219
H 3.816003 0.765489 0.959435
H 7.315268 1.885278 1.192829
H 5.685974 2.446590 -0.055102
H -6.229445 -4.148736 0.405162
H -5.849466 -3.431411 1.971375
H -5.371832 -5.080191 1.621459
