68

C -0.883461 4.792635 0.223890
C -2.227316 4.397935 0.281409
C -2.559414 3.028611 0.276793
C -1.462870 2.131579 0.235497
N -0.172585 2.486352 0.182697
C 0.101760 3.799760 0.171923
C -3.976923 2.512253 0.324161
C -5.133956 3.297272 0.451039
C -6.342622 2.592399 0.492270
N -6.446851 1.268656 0.408661
C -5.285502 0.595856 0.268221
N -4.081765 1.173407 0.225627
N -5.395800 -0.783475 0.172931
C -4.420443 -1.845714 0.110174
C -4.827065 -3.193712 0.347618
C -3.835704 -4.186793 0.265342
C -2.500113 -3.932241 -0.068393
C -2.133774 -2.616179 -0.367710
C -3.102364 -1.602545 -0.295336
N -0.830674 -2.171102 -0.758542
C 0.386347 -2.811405 -0.762413
C 1.625935 -1.986741 -1.060017
C 1.736223 -0.614567 -0.775198
C 2.900956 0.084625 -1.096390
C 4.005257 -0.556481 -1.686431
C 3.891054 -1.935697 -1.946099
C 2.725674 -2.642172 -1.639230
C 5.300371 0.194209 -1.989410
N 6.161153 0.710245 -0.912364
C 6.902519 -0.263869 -0.081692
C 6.238027 -0.636969 1.267755
N 5.856185 0.538174 2.089328
C 6.922223 1.141114 2.898685
C 5.044990 1.460343 1.259243
C 5.712943 1.852215 -0.085696
O 0.481332 -4.015709 -0.580827
C -6.247300 -3.586350 0.716248
H -0.605633 5.842503 0.217566
H -2.990393 5.171695 0.314306
H -1.640349 1.062191 0.271098
H 1.157008 4.064654 0.127241
H -5.129446 4.377129 0.536036
H -7.285498 3.127504 0.602774
H -6.362289 -1.060540 0.257300
H -4.103460 -5.223076 0.467902
H -1.765881 -4.726949 -0.119346
H -2.832094 -0.589244 -0.545316
H -0.782801 -1.196104 -1.017410
H 0.909602 -0.087034 -0.303968
H 2.934150 1.152610 -0.884523
H 4.727292 -2.479239 -2.385122
H 2.649358 -3.707851 -1.840806
H 5.989069 -0.416411 -2.591105
H 5.077900 1.019293 -2.680376
H 7.124547 -1.495399 -0.832255
H 8.256690 0.340299 0.244456
H 6.799954 -1.287347 1.826064
H 4.883971 -1.381404 0.888496
H 7.703008 1.573957 2.263199
H 7.376887 0.383279 3.546891
H 6.510876 1.928339 3.540344
H 4.840604 2.731320 2.028084
H 4.090282 1.016757 1.120478
H 7.032417 2.642988 0.332857
H 5.138452 2.520966 -0.652548
H -6.947427 -3.372684 -0.103662
H -6.599146 -3.040054 1.602542
H -6.350137 -4.655604 0.946713
