68

C 2.271492 5.815773 3.438174
C 2.888457 5.255685 2.311821
C 3.320742 3.914367 2.338457
C 3.088964 3.212487 3.547539
N 2.501060 3.733862 4.632443
C 2.102444 5.012441 4.570807
C 3.993220 3.233887 1.173441
C 4.270839 3.832359 -0.068347
C 4.900978 3.016582 -1.015637
N 5.230521 1.745283 -0.808114
C 4.916467 1.262914 0.408720
N 4.320928 1.944585 1.385796
N 5.250805 -0.042649 0.619827
C 4.497489 -1.242268 0.426446
C 5.177833 -2.494960 0.368720
C 4.390896 -3.640011 0.169966
C 2.998930 -3.611678 0.034430
C 2.344929 -2.376359 0.109717
C 3.102205 -1.205797 0.295678
N 0.930415 -2.182743 -0.013817
C -0.068814 -3.058806 -0.371809
C -1.442809 -2.489591 -0.664130
C -1.645386 -1.242101 -1.276242
C -2.939174 -0.765838 -1.499278
C -4.071731 -1.518529 -1.135548
C -3.853617 -2.772088 -0.532503
C -2.563526 -3.258552 -0.309580
C -5.485189 -0.969163 -1.335206
N -6.054445 -0.067516 -0.318117
C -5.576388 1.331267 -0.249783
C -4.435452 1.569060 0.772731
N -4.742472 1.095114 2.142334
C -5.547679 1.987296 2.985153
C -5.177415 -0.321493 2.076300
C -6.301397 -0.596951 1.042966
O 0.108861 -4.264662 -0.434804
C 6.685660 -2.632947 0.490490
H 1.930169 6.846724 3.440144
H 3.018485 5.883702 1.433914
H 3.398392 2.174592 3.635209
H 1.627934 5.405022 5.468665
H 4.031728 4.860043 -0.311965
H 5.154012 3.409528 -1.999790
H 6.225247 -0.111708 0.874402
H 4.873949 -4.614471 0.111004
H 2.432504 -4.521714 -0.120842
H 2.613880 -0.241756 0.357152
H 0.628305 -1.227951 0.119515
H -0.786191 -0.649100 -1.579472
H -3.063799 0.210461 -1.967893
H -4.701290 -3.383216 -0.223476
H -2.404077 -4.229133 0.153483
H -5.517558 -0.438088 -2.297791
H -6.179332 -1.817107 -1.427624
H -5.345195 1.697509 -1.212538
H -6.788370 2.196830 0.274333
H -4.195811 3.046556 0.826616
H -3.457015 1.065334 0.433435
H -6.560620 2.101159 2.583014
H -5.078115 2.975584 3.046785
H -5.616115 1.585073 4.002469
H -5.458722 -0.670542 3.089704
H -3.977059 -1.121038 1.644922
H -7.572239 0.147687 1.601454
H -6.563082 -1.711446 0.997568
H 7.036925 -2.321616 1.484390
H 7.206826 -2.014428 -0.254224
H 7.035491 -3.663753 0.340795
