68

C -0.597039 4.315616 -0.541241
C 0.803528 4.296789 -0.508116
C 1.488182 3.065874 -0.488164
C 0.672315 1.909020 -0.551490
N -0.665205 1.904831 -0.580999
C -1.283961 3.096520 -0.563572
C 2.984470 2.945442 -0.340750
C 3.890298 4.016072 -0.267781
C 5.225563 3.667472 -0.033259
N 5.659765 2.422284 0.143281
C 4.716795 1.460478 0.066897
N 3.425959 1.682465 -0.187102
N 5.156601 0.165598 0.271887
C 4.511570 -1.115764 0.134642
C 5.307291 -2.282396 -0.076548
C 4.636627 -3.516072 -0.120655
C 3.252838 -3.657893 0.033476
C 2.488843 -2.507581 0.258482
C 3.135271 -1.264492 0.349466
N 1.063882 -2.466488 0.404188
C 0.112573 -3.389181 0.036951
C -1.334958 -2.975573 0.183227
C -2.160313 -3.054170 -0.949596
C -3.513776 -2.722996 -0.859482
C -4.084258 -2.295145 0.354513
C -3.225452 -2.152812 1.461948
C -1.883897 -2.539698 1.398175
C -5.544865 -1.856931 0.433714
N -5.972500 -0.462788 0.255716
C -5.723960 0.190583 -1.047041
C -4.511836 1.150237 -1.104546
N -4.491551 2.164370 -0.025691
C -5.359199 3.336237 -0.209086
C -4.624425 1.462854 1.275601
C -5.836454 0.497746 1.372899
O 0.393431 -4.484451 -0.420265
C 6.816360 -2.248779 -0.246573
H -1.148379 5.250942 -0.525736
H 1.329526 5.246655 -0.452889
H 1.130215 0.925622 -0.576524
H -2.370717 3.073702 -0.558493
H 3.606673 5.056728 -0.364690
H 5.989698 4.441394 0.036034
H 6.156864 0.143942 0.403176
H 5.209372 -4.426967 -0.291127
H 2.772530 -4.625699 -0.043459
H 2.562497 -0.374344 0.560684
H 0.673555 -1.546984 0.559608
H -1.732461 -3.402408 -1.886335
H -4.128764 -2.797378 -1.755975
H -3.621018 -1.790778 2.411111
H -1.242758 -2.473037 2.273611
H -6.096038 -2.453386 -0.308485
H -6.016610 -2.206394 1.362826
H -5.610932 -0.717603 -2.000711
H -6.969024 1.050478 -1.371945
H -4.420688 1.634528 -2.060597
H -3.218461 0.244076 -0.903648
H -6.416618 3.048820 -0.207060
H -5.130109 3.829090 -1.161145
H -5.188240 4.061497 0.594763
H -4.626784 2.212691 2.105383
H -3.359240 0.595546 1.436761
H -7.106230 1.416321 1.338266
H -5.852026 -0.048052 2.371645
H 7.316912 -1.968449 0.690925
H 7.121166 -1.523348 -1.014052
H 7.234296 -3.218199 -0.551502
