68

C 0.660765 4.684075 -1.703330
C 1.886274 4.496022 -1.050155
C 2.333861 3.192618 -0.760145
C 1.490674 2.139390 -1.192136
N 0.316086 2.297609 -1.816541
C -0.085803 3.555135 -2.059765
C 3.625005 2.886188 -0.043993
C 4.608649 3.826686 0.302725
C 5.742024 3.314259 0.946125
N 5.920762 2.028452 1.243008
C 4.918534 1.198804 0.888961
N 3.805003 1.590449 0.267993
N 5.100831 -0.134643 1.209304
C 4.353040 -1.328029 0.899393
C 4.998786 -2.600280 0.949546
C 4.225323 -3.727707 0.625380
C 2.876804 -3.670726 0.254111
C 2.251986 -2.419748 0.209333
C 2.996073 -1.280180 0.554240
N 0.883333 -2.165080 -0.142078
C -0.082855 -2.947979 -0.747068
C -1.377600 -2.218260 -1.061976
C -1.461647 -0.882212 -1.486677
C -2.705148 -0.282175 -1.699958
C -3.920481 -0.962289 -1.459991
C -3.804172 -2.337677 -1.160422
C -2.568468 -2.950520 -0.939764
C -5.280240 -0.287826 -1.755358
N -6.231608 -0.585492 -0.619406
C -7.157758 0.539149 -0.308913
C -6.587631 1.609903 0.660434
N -6.103046 1.065866 1.952056
C -7.124921 0.874649 2.989328
C -5.234179 -0.107043 1.681531
C -5.819428 -1.156020 0.696484
O 0.136652 -4.149293 -0.726235
C 6.462214 -2.777540 1.317501
H 0.291487 5.680166 -1.928581
H 2.461614 5.372180 -0.761352
H 1.787891 1.105607 -1.045876
H -1.043833 3.648521 -2.569080
H 4.547166 4.886611 0.088947
H 6.569128 3.956107 1.248257
H 6.010959 -0.255873 1.627345
H 4.689892 -4.712749 0.652978
H 2.318918 -4.563507 0.004527
H 2.509865 -0.318655 0.562925
H 0.588126 -1.204570 -0.043095
H -0.553145 -0.308753 -1.658665
H -2.707880 0.754064 -2.039868
H -4.694002 -2.966321 -1.139548
H -2.511260 -4.004390 -0.676643
H -4.868318 0.728623 -1.684703
H -6.071722 -0.155969 -2.493756
H -7.583756 1.252270 -1.641061
H -8.403552 -0.035260 0.275291
H -7.407093 2.457888 0.870659
H -5.480989 2.247943 0.046510
H -7.852217 0.116761 2.679735
H -7.652511 1.816258 3.182691
H -6.658715 0.558643 3.929627
H -4.941890 -0.767658 2.960729
H -3.922685 0.414861 1.124346
H -7.059914 -1.752650 1.344779
H -5.307203 -1.795123 0.602802
H 6.684347 -2.445938 2.341947
H 7.108858 -2.206332 0.645467
H 6.789431 -3.818573 1.253590
