68

C 1.126364 6.018541 1.938752
C 1.751611 5.291614 0.917998
C 2.252563 4.000202 1.177026
C 2.073594 3.519910 2.497990
N 1.477515 4.201993 3.485748
C 1.015486 5.428602 3.201895
C 2.939013 3.147804 0.140101
C 3.149988 3.526797 -1.198604
C 3.810246 2.594488 -2.008083
N 4.222818 1.401829 -1.588157
C 3.960382 1.124246 -0.298092
N 3.361106 1.941277 0.564886
N 4.417808 -0.083077 0.136341
C 3.762817 -1.350894 0.221067
C 4.479222 -2.485221 0.706804
C 3.786797 -3.705038 0.756679
C 2.450915 -3.858582 0.370410
C 1.741247 -2.729227 -0.055754
C 2.423613 -1.503903 -0.164845
N 0.376552 -2.721630 -0.515773
C -0.595529 -3.704830 -0.585660
C -1.961855 -3.170429 -0.975722
C -2.192700 -2.152880 -1.912476
C -3.491808 -1.702077 -2.157949
C -4.643645 -2.305599 -1.604246
C -4.356729 -3.250037 -0.585060
C -3.071839 -3.736463 -0.333072
C -5.955434 -1.461326 -1.643011
N -5.841919 -0.390658 -0.601300
C -5.401791 0.955723 -1.062579
C -3.906868 1.341487 -0.894993
N -3.396983 1.158684 0.485548
C -3.687586 2.236069 1.439493
C -3.731939 -0.220806 0.923149
C -5.228675 -0.601318 0.740432
O -0.283611 -4.771061 -0.080785
C 5.931095 -2.427527 1.151351
H 0.734456 7.015697 1.761596
H 1.837034 5.751139 -0.063732
H 2.431769 2.530244 2.767920
H 0.538243 5.951043 4.029433
H 2.841195 4.473567 -1.623934
H 4.031454 2.795988 -3.055588
H 5.396831 -0.024868 0.372344
H 4.307473 -4.595765 1.106181
H 1.964922 -4.824297 0.408080
H 1.907141 -0.632750 -0.544706
H 0.041904 -1.791167 -0.721390
H -1.352195 -1.704888 -2.436546
H -3.616172 -0.872313 -2.853475
H -5.170354 -3.638189 0.028742
H -2.907776 -4.514152 0.409307
H -6.474978 -0.995934 -2.482732
H -6.374909 -2.457849 -1.440805
H -5.799941 1.159731 -2.514541
H -6.230200 1.984812 -0.237852
H -3.741007 2.619223 -1.252025
H -3.351626 0.821215 -1.481904
H -4.765445 2.318830 1.610546
H -3.312854 3.193134 1.058090
H -3.188419 2.042816 2.396001
H -3.392237 -0.345221 2.340447
H -3.115067 -0.873699 0.417932
H -6.031301 0.338665 1.723544
H -5.415381 -1.528833 1.067938
H 6.103009 -1.690771 1.949024
H 6.585150 -2.159971 0.316793
H 6.292098 -3.384526 1.537136
