68

C -0.332604 4.423056 -0.865061
C 0.986530 4.305757 -0.408900
C 1.692077 3.112592 -0.637955
C 1.003895 2.073577 -1.301600
N -0.259488 2.169875 -1.736727
C -0.905950 3.327102 -1.522639
C 3.100094 2.906530 -0.185571
C 3.485969 2.439809 1.075005
C 4.868025 2.334937 1.269148
N 5.782237 2.641864 0.351011
C 5.307068 3.075948 -0.836642
N 4.010268 3.208866 -1.125219
N 6.263628 3.392087 -1.788589
C 6.183297 3.946434 -3.118637
C 7.354087 4.497407 -3.722976
C 7.218633 5.029116 -5.017207
C 6.014597 5.052342 -5.731358
C 4.880390 4.499104 -5.129112
C 4.982167 3.957559 -3.837849
N 3.569725 4.443879 -5.693776
C 3.036210 5.006353 -6.828597
C 1.525720 4.953772 -6.954011
C 0.674951 5.091345 -5.844364
C -0.704171 4.936514 -5.988648
C -1.282288 4.663944 -7.242297
C -0.424990 4.607927 -8.358319
C 0.956899 4.765942 -8.223611
C -2.779941 4.381093 -7.362573
N -3.264657 3.016007 -7.089608
C -3.334178 2.545823 -5.687155
C -2.088847 1.750912 -5.214239
N -1.737116 0.609150 -6.092414
C -2.493156 -0.632648 -5.888719
C -1.619032 1.092802 -7.489237
C -2.836386 1.916715 -7.984639
O 3.717451 5.505933 -7.709294
C 8.707435 4.545404 -3.034613
H -0.900582 5.336121 -0.714670
H 1.458306 5.139846 0.106186
H 1.504518 1.126129 -1.490827
H -1.929621 3.373085 -1.891116
H 2.781174 2.178614 1.855666
H 5.262860 1.984348 2.222186
H 7.185769 3.270468 -1.397492
H 8.089922 5.461947 -5.507448
H 5.948645 5.485150 -6.722390
H 4.102532 3.544483 -3.365128
H 2.901227 3.955188 -5.114641
H 1.099429 5.298505 -4.864785
H -1.333002 5.008056 -5.101019
H -0.833132 4.409105 -9.348793
H 1.617015 4.706904 -9.085156
H -3.319871 5.062289 -6.688857
H -3.107670 4.637865 -8.380492
H -3.581795 3.337001 -5.038877
H -4.531785 1.522681 -5.613180
H -2.380474 1.227343 -3.865085
H -1.177472 2.418397 -5.126524
H -3.548903 -0.498534 -6.149874
H -2.424456 -0.950184 -4.842105
H -2.076636 -1.433875 -6.510066
H -1.402681 0.238710 -8.159603
H -0.426124 2.002914 -7.527859
H -4.030302 0.891765 -8.054798
H -2.673802 2.304486 -9.039485
H 9.096929 3.535145 -2.845535
H 8.649049 5.063824 -2.067145
H 9.470182 5.071793 -3.624893
