68

C 0.810793 4.668081 -2.603248
C 2.131612 4.422706 -2.203508
C 2.487585 3.163894 -1.678660
C 1.442258 2.210409 -1.609057
N 0.174573 2.426383 -1.981514
C -0.127370 3.638641 -2.469422
C 3.876576 2.823513 -1.196534
C 4.983607 3.687258 -1.233629
C 6.173145 3.172922 -0.707210
N 6.299473 1.957438 -0.183753
C 5.183579 1.197832 -0.183457
N 4.002378 1.589198 -0.669511
N 5.333843 -0.062731 0.371119
C 4.460513 -1.200138 0.518128
C 5.022868 -2.464140 0.876197
C 4.134683 -3.539268 1.047723
C 2.747501 -3.434850 0.897077
C 2.212689 -2.182063 0.584470
C 3.067794 -1.081436 0.425533
N 0.831455 -1.907019 0.400557
C -0.039053 -2.418486 -0.531198
C -1.391347 -1.761280 -0.715169
C -1.595225 -0.374709 -0.628503
C -2.870287 0.164926 -0.813249
C -3.974555 -0.647621 -1.131968
C -3.762806 -2.039372 -1.168342
C -2.490590 -2.588970 -0.996219
C -5.383304 -0.062785 -1.204430
N -6.184274 0.179437 0.006125
C -5.872905 1.353829 0.850099
C -4.935342 1.053452 2.047169
N -5.387053 -0.061848 2.910758
C -6.407899 0.256644 3.916405
C -5.645334 -1.250242 2.061825
C -6.567546 -0.979461 0.844148
O 0.241178 -3.417293 -1.172359
C 6.513292 -2.698463 1.056456
H 0.514296 5.632071 -3.006038
H 2.854858 5.228487 -2.300548
H 1.646058 1.210889 -1.240985
H -1.164201 3.785810 -2.767349
H 4.957681 4.693170 -1.634349
H 7.078948 3.778673 -0.701981
H 6.291659 -0.193753 0.660166
H 4.530430 -4.521947 1.301626
H 2.095599 -4.292534 1.008194
H 2.650022 -0.113285 0.200285
H 0.459493 -1.147657 0.953978
H -0.748759 0.280172 -0.438270
H -2.995794 1.243980 -0.724869
H -4.600637 -2.713247 -1.345984
H -2.331609 -3.662563 -1.060114
H -5.406824 0.877178 -1.773471
H -5.972993 -0.718874 -1.861628
H -5.535172 2.158400 0.262774
H -7.237461 1.818084 1.499863
H -4.858228 2.290386 2.871928
H -3.802315 0.787463 1.649461
H -7.355935 0.533966 3.441779
H -6.071729 1.087551 4.546765
H -6.579475 -0.609014 4.566563
H -6.026144 -2.076075 2.687741
H -4.295993 -1.687285 1.501039
H -7.982691 -0.658176 1.454583
H -6.689813 -1.904074 0.205248
H 6.909161 -2.128411 1.909068
H 7.079049 -2.394595 0.164119
H 6.763124 -3.752961 1.238701
