68

C 3.093234 -4.937286 -0.612655
C 4.135552 -4.035671 -0.359877
C 3.876976 -2.650306 -0.307475
C 2.529426 -2.268523 -0.523042
N 1.521988 -3.116684 -0.768347
C 1.806546 -4.425668 -0.808630
C 4.947592 -1.617821 -0.047184
C 6.305455 -1.909370 0.168701
C 7.140403 -0.807045 0.373431
N 6.729509 0.456567 0.373417
C 5.408718 0.645526 0.163998
N 4.527630 -0.336164 -0.046653
N 5.012708 1.974990 0.161306
C 3.748014 2.650812 0.019979
C 3.736999 4.075317 -0.084905
C 2.483556 4.696056 -0.206112
C 1.266777 4.004925 -0.228420
C 1.292902 2.607812 -0.138611
C 2.530958 1.960330 -0.006973
N 0.123761 1.787538 -0.147448
C -0.203477 0.664046 0.577727
C -1.488336 -0.065621 0.235081
C -2.092788 -0.038158 -1.032622
C -3.283872 -0.729839 -1.265577
C -3.901304 -1.489689 -0.254321
C -3.265153 -1.540827 1.000413
C -2.072352 -0.855565 1.240149
C -5.222722 -2.220197 -0.498758
N -6.487186 -1.494482 -0.280056
C -6.880880 -0.437212 -1.238912
C -6.466000 0.998063 -0.823849
N -6.896777 1.390404 0.538067
C -8.278963 1.860953 0.682117
C -6.453015 0.346389 1.491264
C -6.851856 -1.100874 1.100896
O 0.497479 0.252181 1.486816
C 4.993761 4.929071 -0.067781
H 3.271707 -6.007540 -0.657580
H 5.133461 -4.440376 -0.210619
H 2.249246 -1.222449 -0.496837
H 0.965359 -5.087414 -1.007748
H 6.719310 -2.910119 0.178614
H 8.206786 -0.950505 0.545059
H 5.822076 2.560269 0.303158
H 2.435794 5.781975 -0.278803
H 0.325635 4.535490 -0.310385
H 2.550520 0.887774 0.100836
H -0.573426 2.165597 -0.773416
H -1.628365 0.525460 -1.837552
H -3.737089 -0.673138 -2.255366
H -3.704025 -2.121582 1.811426
H -1.586053 -0.905238 2.211298
H -5.235710 -2.581220 -1.537547
H -5.250653 -3.111613 0.144454
H -6.569442 -0.683361 -2.217694
H -8.462330 -0.417459 -1.265958
H -7.065956 1.933028 -1.795192
H -5.219471 1.123127 -0.881325
H -8.993679 1.057951 0.469566
H -8.468598 2.693026 -0.005360
H -8.449718 2.224583 1.701882
H -6.976852 0.631830 2.758604
H -5.031234 0.420199 1.568456
H -8.433035 -1.127255 1.178444
H -6.502494 -1.820168 1.803748
H 5.701050 4.619757 -0.850235
H 5.514981 4.854614 0.897133
H 4.791154 5.995888 -0.235228
