68

C 3.056570 -4.936568 -0.577776
C 4.100144 -4.037672 -0.320796
C 3.849858 -2.649979 -0.296008
C 2.509104 -2.262919 -0.541794
N 1.500712 -3.108286 -0.792876
C 1.777322 -4.419718 -0.806631
C 4.923120 -1.619315 -0.040246
C 6.278967 -1.914892 0.182285
C 7.119274 -0.814033 0.372279
N 6.715023 0.451567 0.351516
C 5.395684 0.644370 0.136272
N 4.508674 -0.335730 -0.056742
N 5.006021 1.975656 0.123933
C 3.744169 2.656872 -0.013100
C 3.738722 4.082836 -0.100033
C 2.488202 4.709723 -0.219691
C 1.267538 4.025786 -0.222093
C 1.284958 2.634310 -0.069896
C 2.521443 1.976063 0.017245
N 0.110131 1.826799 -0.069212
C -0.206198 0.676403 0.618855
C -1.479791 -0.063757 0.256461
C -2.075675 -0.023220 -1.014927
C -3.253607 -0.729278 -1.269194
C -3.850178 -1.541330 -0.286895
C -3.244992 -1.571116 0.983783
C -2.062706 -0.875059 1.244867
C -5.203653 -2.203940 -0.531680
N -6.465346 -1.482853 -0.301444
C -6.866550 -0.421949 -1.251331
C -6.466050 1.011897 -0.818234
N -6.892883 1.384776 0.549984
C -8.277783 1.843873 0.702466
C -6.439710 0.332775 1.490060
C -6.830743 -1.112253 1.084396
O 0.489501 0.263937 1.531730
C 4.998843 4.932070 -0.099669
H 3.228820 -6.008629 -0.602096
H 5.091849 -4.446514 -0.144214
H 2.237675 -1.213922 -0.541747
H 0.936505 -5.079983 -1.012633
H 6.687942 -2.917478 0.202511
H 8.184600 -0.960539 0.548754
H 5.818451 2.557193 0.263520
H 2.445410 5.794529 -0.311107
H 0.329155 4.558989 -0.318313
H 2.535480 0.904276 0.137247
H -0.597884 2.145216 -0.715476
H -1.619035 0.567519 -1.804820
H -3.711853 -0.645016 -2.254560
H -3.698888 -2.147893 1.789411
H -1.591615 -0.921300 2.223598
H -5.256469 -2.608498 -1.552437
H -5.248004 -3.132368 0.055551
H -6.547925 -0.654645 -2.229264
H -8.444118 -0.417715 -1.285010
H -7.054143 1.947991 -1.764527
H -5.136844 1.139168 -0.873489
H -8.986677 1.039109 0.477686
H -8.473264 2.685640 0.028397
H -8.450073 2.189751 1.728000
H -6.934605 0.599447 2.730832
H -4.998032 0.409568 1.553693
H -8.403850 -1.153657 1.167983
H -6.471460 -1.837859 1.775524
H 5.684281 4.635320 -0.906151
H 5.545636 4.839035 0.849330
H 4.795033 6.002529 -0.241073
