68

C 3.050954 5.520946 -3.881230
C 3.158841 5.110061 -2.545964
C 3.580551 3.799546 -2.243323
C 3.873251 2.970604 -3.354785
N 3.774943 3.348482 -4.636259
C 3.370774 4.602065 -4.886245
C 3.718574 3.273817 -0.837057
C 3.447717 4.003086 0.334451
C 3.641150 3.319648 1.540836
N 4.040742 2.054538 1.628570
C 4.254617 1.436556 0.451754
N 4.124545 1.992366 -0.751259
N 4.698781 0.150036 0.548413
C 4.018305 -1.089376 0.334349
C 4.775120 -2.292673 0.211741
C 4.054687 -3.484398 0.035267
C 2.657575 -3.551644 0.008843
C 1.929633 -2.368852 0.181247
C 2.618091 -1.154332 0.350318
N 0.500834 -2.269228 0.186232
C -0.467088 -3.191666 -0.140893
C -1.891570 -2.697080 -0.294419
C -2.212740 -1.447270 -0.848342
C -3.544769 -1.040606 -0.949258
C -4.602131 -1.875962 -0.542766
C -4.262705 -3.113217 0.038193
C -2.934462 -3.535294 0.132348
C -6.037805 -1.355196 -0.521731
N -6.533418 -0.526990 0.589324
C -6.135895 0.896439 0.650541
C -4.890436 1.172506 1.531196
N -4.995566 0.638590 2.909215
C -5.737591 1.454260 3.878182
C -5.355670 -0.799303 2.844155
C -6.582714 -1.113601 1.947815
O -0.219953 -4.380865 -0.259639
C 6.293376 -2.331903 0.240288
H 2.727583 6.525472 -4.137844
H 2.907642 5.826497 -1.767519
H 4.202928 1.948443 -3.191456
H 3.301581 4.877500 -5.937253
H 3.116668 5.034253 0.343487
H 3.462365 3.819180 2.492503
H 5.689431 0.134800 0.741954
H 4.596969 -4.421467 -0.082842
H 2.143055 -4.494537 -0.130105
H 2.070156 -0.232276 0.493835
H 0.140381 -1.344090 0.373287
H -1.416000 -0.794822 -1.196852
H -3.760925 -0.051643 -1.353706
H -5.045328 -3.765457 0.425547
H -2.683187 -4.500788 0.564176
H -6.293351 -0.810902 -1.441470
H -6.702523 -2.227108 -0.606478
H -6.046036 1.309287 -0.331754
H -7.319868 1.667593 1.350025
H -4.728291 2.646478 1.609172
H -3.944082 0.742331 1.057433
H -6.797315 1.520424 3.607695
H -5.319383 2.466376 3.920099
H -5.656712 1.016995 4.880043
H -5.489967 -1.196341 3.877976
H -4.177296 -1.510496 2.240857
H -7.814151 -0.461093 2.685171
H -6.784103 -2.206991 1.893212
H 6.684219 -2.009284 1.215773
H 6.726733 -1.672168 -0.524811
H 6.700012 -3.335670 0.054550
