68

C -1.143918 4.993563 0.001411
C -2.453031 4.527881 0.186258
C -2.709369 3.142626 0.223624
C -1.574240 2.305240 0.087842
N -0.316228 2.728529 -0.089281
C -0.115184 4.054340 -0.133746
C -4.089786 2.553191 0.383845
C -5.273852 3.283420 0.575056
C -6.444527 2.524300 0.682705
N -6.491591 1.197658 0.601740
C -5.308626 0.578937 0.403962
N -4.134867 1.209210 0.301946
N -5.368033 -0.803161 0.310957
C -4.361716 -1.830921 0.200010
C -4.716174 -3.191103 0.451859
C -3.707008 -4.156627 0.296953
C -2.399598 -3.861596 -0.106542
C -2.078581 -2.530256 -0.390988
C -3.070696 -1.544950 -0.260800
N -0.800459 -2.044174 -0.820127
C 0.428187 -2.658537 -0.883196
C 1.674060 -1.840100 -1.185900
C 2.872329 -2.555376 -1.365673
C 4.064677 -1.890438 -1.658940
C 4.107963 -0.492696 -1.812817
C 2.911885 0.216801 -1.600862
C 1.713176 -0.439938 -1.313655
C 5.436337 0.235388 -2.002393
N 6.264843 0.653673 -0.861219
C 6.958026 -0.385980 -0.068672
C 6.210691 -0.824914 1.216314
N 5.803362 0.288357 2.103521
C 6.833363 0.811462 3.008938
C 5.056903 1.289129 1.304477
C 5.781072 1.746783 0.011381
O 0.537016 -3.865274 -0.720294
C -6.103772 -3.627871 0.889434
H -0.925660 6.056690 -0.039595
H -3.250912 5.260568 0.278677
H -1.688668 1.228474 0.144194
H 0.915379 4.374484 -0.278788
H -5.316582 4.363123 0.649087
H -7.404294 3.015080 0.841433
H -6.318382 -1.116642 0.440321
H -3.935918 -5.202457 0.498449
H -1.649095 -4.636073 -0.204936
H -2.841754 -0.520091 -0.504164
H -0.791316 -1.063511 -1.055830
H 2.854547 -3.637204 -1.257573
H 4.977830 -2.477020 -1.756732
H 2.910400 1.305970 -1.647224
H 0.819287 0.154458 -1.143771
H 6.086703 -0.352191 -2.666333
H 5.271686 1.128835 -2.621993
H 7.224584 -1.212576 -0.682570
H 8.307631 0.251061 0.435005
H 7.031784 -1.707683 1.937504
H 5.015302 -1.528305 0.832961
H 7.650028 1.279746 2.447956
H 7.244290 0.001425 3.622173
H 6.397919 1.555854 3.685354
H 4.790327 2.179837 1.967027
H 3.781781 0.644186 0.892689
H 7.055010 2.534432 0.507167
H 5.171670 2.462009 -0.567944
H -6.849529 -3.433741 0.105415
H -6.428040 -3.094211 1.794026
H -6.162346 -4.700218 1.121990
