68

C 0.216708 3.917158 1.505184
C -1.166170 3.808393 1.301516
C -1.733010 2.559624 0.980211
C -0.822966 1.478362 0.884197
N 0.501021 1.562164 1.068872
C 1.005638 2.767356 1.380418
C -3.212013 2.326154 0.791237
C -4.223513 3.272030 1.025577
C -5.537078 2.809653 0.875307
N -5.862332 1.565568 0.528318
C -4.828647 0.730811 0.299112
N -3.545833 1.080424 0.407670
N -5.168007 -0.563129 -0.063625
C -4.383097 -1.755391 -0.275960
C -5.004722 -3.039391 -0.222503
C -4.173381 -4.163372 -0.373299
C -2.790832 -4.094213 -0.587344
C -2.201093 -2.830103 -0.686350
C -3.010598 -1.692693 -0.545443
N -0.823938 -2.546830 -0.956100
C 0.320214 -3.318284 -0.875335
C 1.621422 -2.552958 -1.059706
C 1.833076 -1.231140 -0.639377
C 3.035876 -0.582677 -0.923813
C 4.177343 -1.262528 -1.388422
C 3.923109 -2.582857 -1.844076
C 2.694319 -3.225006 -1.663388
C 5.508244 -0.548844 -1.772224
N 5.972920 0.412294 -0.727493
C 5.887632 0.059385 0.717526
C 4.771736 0.678876 1.606053
N 4.654701 2.156343 1.477360
C 5.620457 2.954546 2.243544
C 4.524663 2.483254 0.035460
C 5.636434 1.857607 -0.846865
O 0.151323 -4.527951 -0.890495
C -6.490147 -3.232328 0.030885
H 0.674776 4.867492 1.762616
H -1.777642 4.702055 1.400080
H -1.182827 0.475157 0.678400
H 2.081115 2.805392 1.549467
H -4.047719 4.292980 1.341708
H -6.396370 3.456485 1.050816
H -6.171836 -0.662583 -0.048475
H -4.615434 -5.157285 -0.316503
H -2.183878 -4.983218 -0.700199
H -2.565398 -0.717520 -0.652706
H -0.588990 -1.573361 -1.079570
H 1.039589 -0.683021 -0.137418
H 3.048868 0.488788 -0.785855
H 4.703200 -3.139494 -2.365194
H 2.547405 -4.250105 -1.995955
H 5.926422 -1.556637 -1.627829
H 5.748311 -0.013803 -2.694858
H 5.863990 -1.419648 0.871127
H 7.262061 0.549487 1.343618
H 4.939572 0.405158 2.688763
H 3.734638 0.221922 1.328866
H 6.638031 2.776768 1.881500
H 5.571991 2.693381 3.307376
H 5.391983 4.022676 2.150405
H 4.532300 3.808203 -0.117556
H 3.716027 2.205402 -0.237333
H 6.976499 2.618896 -0.451855
H 5.367837 2.200594 -2.277694
H -7.116490 -2.749028 -0.732529
H -6.780841 -2.814350 0.998707
H -6.782031 -4.285536 0.044753
